
     RDKit          3D

 51 54  0  0  0  0  0  0  0  0999 V2000
  -13.5420    0.1840   -6.4920 C   0  0  0  0  0  0  0  0  0  0  0  0
  -13.5760   -0.9700   -7.3220 O   0  0  0  0  0  0  0  0  0  0  0  0
  -12.6770   -1.0500   -8.3520 C   0  0  0  0  0  0  0  0  0  0  0  0
  -11.3320   -1.4090   -8.1790 C   0  0  0  0  0  0  0  0  0  0  0  0
  -10.4470   -1.5280   -9.2450 C   0  0  0  0  0  0  0  0  0  0  0  0
   -9.1730   -1.8820   -8.9930 N   0  0  0  0  0  0  0  0  0  0  0  0
   -8.3250   -2.0180  -10.0360 C   0  0  0  0  0  0  0  0  0  0  0  0
   -8.6810   -1.8020  -11.3480 C   0  0  0  0  0  0  0  0  0  0  0  0
   -9.9920   -1.4090  -11.5970 C   0  0  0  0  0  0  0  0  0  0  0  0
  -10.4170   -1.2070  -12.8940 O   0  0  0  0  0  0  0  0  0  0  0  0
  -10.0820   -0.0050  -13.4790 C   0  0  0  0  0  0  0  0  0  0  0  0
   -9.0140   -0.0210  -14.3720 C   0  0  0  0  0  0  0  0  0  0  0  0
   -8.6250    1.1510  -15.0310 C   0  0  0  0  0  0  0  0  0  0  0  0
   -9.3110    2.3490  -14.8120 C   0  0  0  0  0  0  0  0  0  0  0  0
   -8.9730    3.5690  -15.4450 N   0  0  0  0  0  0  0  0  0  0  0  0
   -9.3030    3.9980  -16.7200 C   0  0  0  0  0  0  0  0  0  0  0  0
   -9.9420    3.3440  -17.5350 O   0  0  0  0  0  0  0  0  0  0  0  0
   -8.8110    5.2630  -16.9550 N   0  0  0  0  0  0  0  0  0  0  0  0
   -8.9560    5.9710  -18.1280 C   0  0  0  0  0  0  0  0  0  0  0  0
   -9.7770    7.0820  -18.4190 C   0  0  0  0  0  0  0  0  0  0  0  0
   -9.5160    7.3710  -19.7350 C   0  0  0  0  0  0  0  0  0  0  0  0
  -10.0040    8.3860  -20.6840 C   0  0  0  0  0  0  0  0  0  0  0  0
   -8.5960    6.4910  -20.2090 O   0  0  0  0  0  0  0  0  0  0  0  0
   -8.2430    5.6110  -19.2020 N   0  0  0  0  0  0  0  0  0  0  0  0
  -10.4060    2.3400  -13.9250 C   0  0  0  0  0  0  0  0  0  0  0  0
  -11.3130    3.7850  -13.6210 Cl  0  0  0  0  0  0  0  0  0  0  0  0
  -10.7960    1.1720  -13.2650 C   0  0  0  0  0  0  0  0  0  0  0  0
  -10.9180   -1.2810  -10.5450 C   0  0  0  0  0  0  0  0  0  0  0  0
  -12.2660   -0.9130  -10.7310 C   0  0  0  0  0  0  0  0  0  0  0  0
  -13.1380   -0.7740   -9.6460 C   0  0  0  0  0  0  0  0  0  0  0  0
  -14.4070   -0.4130  -10.0170 O   0  0  0  0  0  0  0  0  0  0  0  0
  -14.6250    0.9670  -10.2910 C   0  0  0  0  0  0  0  0  0  0  0  0
  -13.5511   -0.1235   -5.4359 H   0  0  0  0  0  0  0  0  0  0  0  0
  -12.6266    0.7577   -6.6990 H   0  0  0  0  0  0  0  0  0  0  0  0
  -14.4221    0.8106   -6.6990 H   0  0  0  0  0  0  0  0  0  0  0  0
  -10.9633   -1.6038   -7.1611 H   0  0  0  0  0  0  0  0  0  0  0  0
   -7.2885   -2.3192   -9.8241 H   0  0  0  0  0  0  0  0  0  0  0  0
   -7.9581   -1.9348  -12.1664 H   0  0  0  0  0  0  0  0  0  0  0  0
   -8.4729   -0.9599  -14.5607 H   0  0  0  0  0  0  0  0  0  0  0  0
   -7.7730    1.1291  -15.7265 H   0  0  0  0  0  0  0  0  0  0  0  0
   -8.3780    4.1770  -14.8970 H   0  0  0  0  0  0  0  0  0  0  0  0
   -8.3250    5.7720  -16.2360 H   0  0  0  0  0  0  0  0  0  0  0  0
  -10.4714    7.6006  -17.7416 H   0  0  0  0  0  0  0  0  0  0  0  0
  -10.4151    9.2410  -20.1272 H   0  0  0  0  0  0  0  0  0  0  0  0
   -9.1713    8.7267  -21.3168 H   0  0  0  0  0  0  0  0  0  0  0  0
  -10.7902    7.9484  -21.3168 H   0  0  0  0  0  0  0  0  0  0  0  0
  -11.6588    1.1816  -12.5827 H   0  0  0  0  0  0  0  0  0  0  0  0
  -12.6396   -0.7315  -11.7496 H   0  0  0  0  0  0  0  0  0  0  0  0
  -14.7123    1.5195   -9.3439 H   0  0  0  0  0  0  0  0  0  0  0  0
  -13.7784    1.3640  -10.8704 H   0  0  0  0  0  0  0  0  0  0  0  0
  -15.5527    1.0837  -10.8704 H   0  0  0  0  0  0  0  0  0  0  0  0
  1  2  1  0
  2  3  1  0
  3  4  1  0
  4  5  2  0
  5  6  1  0
  6  7  2  0
  7  8  1  0
  8  9  2  0
  9 10  1  0
 10 11  1  0
 11 12  1  0
 12 13  2  0
 13 14  1  0
 14 15  1  0
 15 16  1  0
 16 17  2  0
 16 18  1  0
 18 19  1  0
 19 20  1  0
 20 21  2  0
 21 22  1  0
 21 23  1  0
 23 24  1  0
 14 25  2  0
 25 26  1  0
 25 27  1  0
  9 28  1  0
 28 29  2  0
 29 30  1  0
 30 31  1  0
 31 32  1  0
 30  3  2  0
 28  5  1  0
 27 11  2  0
 24 19  2  0
  1 33  1  0
  1 34  1  0
  1 35  1  0
  4 36  1  0
  7 37  1  0
  8 38  1  0
 12 39  1  0
 13 40  1  0
 15 41  1  0
 18 42  1  0
 20 43  1  0
 22 44  1  0
 22 45  1  0
 22 46  1  0
 27 47  1  0
 29 48  1  0
 32 49  1  0
 32 50  1  0
 32 51  1  0
M  END
>  <meeko>  (1) 
{"is_sidechain": false}

>  <vina_affinity_kcal_mol>  (1) 
-8.253

>  <pose_rank>  (1) 
1

$$$$

     RDKit          3D

 51 54  0  0  0  0  0  0  0  0999 V2000
   -6.7110    4.4980  -17.7810 C   0  0  0  0  0  0  0  0  0  0  0  0
   -8.0010    3.9530  -18.0310 O   0  0  0  0  0  0  0  0  0  0  0  0
   -8.6740    3.3850  -16.9820 C   0  0  0  0  0  0  0  0  0  0  0  0
   -8.5560    2.0330  -16.6270 C   0  0  0  0  0  0  0  0  0  0  0  0
   -9.2130    1.4870  -15.5310 C   0  0  0  0  0  0  0  0  0  0  0  0
   -9.0420    0.1810  -15.2570 N   0  0  0  0  0  0  0  0  0  0  0  0
   -9.6650   -0.3380  -14.1760 C   0  0  0  0  0  0  0  0  0  0  0  0
  -10.4820    0.3900  -13.3400 C   0  0  0  0  0  0  0  0  0  0  0  0
  -10.6760    1.7320  -13.6460 C   0  0  0  0  0  0  0  0  0  0  0  0
  -11.4590    2.5210  -12.8270 O   0  0  0  0  0  0  0  0  0  0  0  0
  -12.2720    1.8680  -11.9270 C   0  0  0  0  0  0  0  0  0  0  0  0
  -13.6220    2.2120  -11.9390 C   0  0  0  0  0  0  0  0  0  0  0  0
  -14.5220    1.5770  -11.0750 C   0  0  0  0  0  0  0  0  0  0  0  0
  -14.0820    0.5810  -10.1990 C   0  0  0  0  0  0  0  0  0  0  0  0
  -14.9370   -0.1030   -9.3010 N   0  0  0  0  0  0  0  0  0  0  0  0
  -15.5560    0.3860   -8.1630 C   0  0  0  0  0  0  0  0  0  0  0  0
  -15.4280    1.5240   -7.7290 O   0  0  0  0  0  0  0  0  0  0  0  0
  -16.3370   -0.5850   -7.5750 N   0  0  0  0  0  0  0  0  0  0  0  0
  -17.0740   -0.4260   -6.4220 C   0  0  0  0  0  0  0  0  0  0  0  0
  -18.4390   -0.1040   -6.2590 C   0  0  0  0  0  0  0  0  0  0  0  0
  -18.6290   -0.0780   -4.9000 C   0  0  0  0  0  0  0  0  0  0  0  0
  -19.7860    0.1840   -4.0260 C   0  0  0  0  0  0  0  0  0  0  0  0
  -17.4540   -0.3650   -4.2820 O   0  0  0  0  0  0  0  0  0  0  0  0
  -16.4770   -0.5840   -5.2350 N   0  0  0  0  0  0  0  0  0  0  0  0
  -12.7170    0.2270  -10.2190 C   0  0  0  0  0  0  0  0  0  0  0  0
  -12.1070   -1.0120   -9.1730 Cl  0  0  0  0  0  0  0  0  0  0  0  0
  -11.8160    0.8600  -11.0800 C   0  0  0  0  0  0  0  0  0  0  0  0
  -10.0250    2.3220  -14.7460 C   0  0  0  0  0  0  0  0  0  0  0  0
  -10.1570    3.6810  -15.0950 C   0  0  0  0  0  0  0  0  0  0  0  0
   -9.5090    4.2100  -16.2160 C   0  0  0  0  0  0  0  0  0  0  0  0
   -9.7520    5.5470  -16.3980 O   0  0  0  0  0  0  0  0  0  0  0  0
  -11.1120    5.9610  -16.3580 C   0  0  0  0  0  0  0  0  0  0  0  0
   -6.5464    4.5675  -16.6956 H   0  0  0  0  0  0  0  0  0  0  0  0
   -5.9450    3.8466  -18.2270 H   0  0  0  0  0  0  0  0  0  0  0  0
   -6.6441    5.5013  -18.2270 H   0  0  0  0  0  0  0  0  0  0  0  0
   -7.9183    1.3794  -17.2403 H   0  0  0  0  0  0  0  0  0  0  0  0
   -9.5106   -1.4036  -13.9508 H   0  0  0  0  0  0  0  0  0  0  0  0
  -10.9620   -0.0721  -12.4648 H   0  0  0  0  0  0  0  0  0  0  0  0
  -13.9828    2.9870  -12.6313 H   0  0  0  0  0  0  0  0  0  0  0  0
  -15.5838    1.8642  -11.0857 H   0  0  0  0  0  0  0  0  0  0  0  0
  -15.0680   -1.0840   -9.5100 H   0  0  0  0  0  0  0  0  0  0  0  0
  -16.4370   -1.4940   -7.9940 H   0  0  0  0  0  0  0  0  0  0  0  0
  -19.1842    0.0841   -7.0459 H   0  0  0  0  0  0  0  0  0  0  0  0
  -19.4739    0.1133   -2.9736 H   0  0  0  0  0  0  0  0  0  0  0  0
  -20.1755    1.1931   -4.2260 H   0  0  0  0  0  0  0  0  0  0  0  0
  -20.5723   -0.5588   -4.2260 H   0  0  0  0  0  0  0  0  0  0  0  0
  -10.7563    0.5650  -11.0888 H   0  0  0  0  0  0  0  0  0  0  0  0
  -10.7821    4.3389  -14.4734 H   0  0  0  0  0  0  0  0  0  0  0  0
  -11.4347    6.0592  -15.3110 H   0  0  0  0  0  0  0  0  0  0  0  0
  -11.2150    6.9312  -16.8660 H   0  0  0  0  0  0  0  0  0  0  0  0
  -11.7381    5.2128  -16.8660 H   0  0  0  0  0  0  0  0  0  0  0  0
  1  2  1  0
  2  3  1  0
  3  4  1  0
  4  5  2  0
  5  6  1  0
  6  7  2  0
  7  8  1  0
  8  9  2  0
  9 10  1  0
 10 11  1  0
 11 12  1  0
 12 13  2  0
 13 14  1  0
 14 15  1  0
 15 16  1  0
 16 17  2  0
 16 18  1  0
 18 19  1  0
 19 20  1  0
 20 21  2  0
 21 22  1  0
 21 23  1  0
 23 24  1  0
 14 25  2  0
 25 26  1  0
 25 27  1  0
  9 28  1  0
 28 29  2  0
 29 30  1  0
 30 31  1  0
 31 32  1  0
 30  3  2  0
 28  5  1  0
 27 11  2  0
 24 19  2  0
  1 33  1  0
  1 34  1  0
  1 35  1  0
  4 36  1  0
  7 37  1  0
  8 38  1  0
 12 39  1  0
 13 40  1  0
 15 41  1  0
 18 42  1  0
 20 43  1  0
 22 44  1  0
 22 45  1  0
 22 46  1  0
 27 47  1  0
 29 48  1  0
 32 49  1  0
 32 50  1  0
 32 51  1  0
M  END
>  <meeko>  (2) 
{"is_sidechain": false}

>  <vina_affinity_kcal_mol>  (2) 
-8.122

>  <pose_rank>  (2) 
2

$$$$

     RDKit          3D

 51 54  0  0  0  0  0  0  0  0999 V2000
   -9.2610    8.2390  -19.2000 C   0  0  0  0  0  0  0  0  0  0  0  0
   -9.1060    6.8300  -19.3070 O   0  0  0  0  0  0  0  0  0  0  0  0
   -9.4030    6.0650  -18.2110 C   0  0  0  0  0  0  0  0  0  0  0  0
  -10.6120    6.1590  -17.5060 C   0  0  0  0  0  0  0  0  0  0  0  0
  -10.9120    5.3410  -16.4230 C   0  0  0  0  0  0  0  0  0  0  0  0
  -12.0970    5.4940  -15.8040 N   0  0  0  0  0  0  0  0  0  0  0  0
  -12.3920    4.6790  -14.7670 C   0  0  0  0  0  0  0  0  0  0  0  0
  -11.5440    3.7050  -14.2920 C   0  0  0  0  0  0  0  0  0  0  0  0
  -10.3100    3.5720  -14.9190 C   0  0  0  0  0  0  0  0  0  0  0  0
   -9.4270    2.5930  -14.5080 O   0  0  0  0  0  0  0  0  0  0  0  0
   -9.9170    1.6370  -13.6460 C   0  0  0  0  0  0  0  0  0  0  0  0
   -9.2060    0.4410  -13.5700 C   0  0  0  0  0  0  0  0  0  0  0  0
   -9.6200   -0.5740  -12.7000 C   0  0  0  0  0  0  0  0  0  0  0  0
  -10.7410   -0.3970  -11.8850 C   0  0  0  0  0  0  0  0  0  0  0  0
  -11.2130   -1.3790  -10.9810 N   0  0  0  0  0  0  0  0  0  0  0  0
  -11.3730   -2.7380  -11.1950 C   0  0  0  0  0  0  0  0  0  0  0  0
  -11.1450   -3.3130  -12.2520 O   0  0  0  0  0  0  0  0  0  0  0  0
  -11.8290   -3.3630  -10.0540 N   0  0  0  0  0  0  0  0  0  0  0  0
  -12.1010   -4.7090   -9.9360 C   0  0  0  0  0  0  0  0  0  0  0  0
  -11.4200   -5.7090   -9.2090 C   0  0  0  0  0  0  0  0  0  0  0  0
  -12.1290   -6.8590   -9.4530 C   0  0  0  0  0  0  0  0  0  0  0  0
  -11.9960   -8.2620   -9.0270 C   0  0  0  0  0  0  0  0  0  0  0  0
  -13.1710   -6.5710  -10.2760 O   0  0  0  0  0  0  0  0  0  0  0  0
  -13.1560   -5.2220  -10.5810 N   0  0  0  0  0  0  0  0  0  0  0  0
  -11.4320    0.8300  -11.9550 C   0  0  0  0  0  0  0  0  0  0  0  0
  -12.8200    1.1250  -10.9600 Cl  0  0  0  0  0  0  0  0  0  0  0  0
  -11.0230    1.8450  -12.8240 C   0  0  0  0  0  0  0  0  0  0  0  0
   -9.9700    4.3800  -16.0210 C   0  0  0  0  0  0  0  0  0  0  0  0
   -8.7490    4.2790  -16.7170 C   0  0  0  0  0  0  0  0  0  0  0  0
   -8.4510    5.1260  -17.7890 C   0  0  0  0  0  0  0  0  0  0  0  0
   -7.2220    4.8820  -18.3450 O   0  0  0  0  0  0  0  0  0  0  0  0
   -6.2850    4.1770  -17.5390 C   0  0  0  0  0  0  0  0  0  0  0  0
   -9.2924    8.5248  -18.1383 H   0  0  0  0  0  0  0  0  0  0  0  0
   -8.4125    8.7394  -19.6895 H   0  0  0  0  0  0  0  0  0  0  0  0
  -10.1980    8.5430  -19.6895 H   0  0  0  0  0  0  0  0  0  0  0  0
  -11.3515    6.9093  -17.8225 H   0  0  0  0  0  0  0  0  0  0  0  0
  -13.3675    4.8015  -14.2736 H   0  0  0  0  0  0  0  0  0  0  0  0
  -11.8307    3.0576  -13.4502 H   0  0  0  0  0  0  0  0  0  0  0  0
   -8.3144    0.2939  -14.1973 H   0  0  0  0  0  0  0  0  0  0  0  0
   -9.0583   -1.5188  -12.6575 H   0  0  0  0  0  0  0  0  0  0  0  0
  -11.5060   -1.0180  -10.0830 H   0  0  0  0  0  0  0  0  0  0  0  0
  -11.9630   -2.8490   -9.2000 H   0  0  0  0  0  0  0  0  0  0  0  0
  -10.5212   -5.5927   -8.5856 H   0  0  0  0  0  0  0  0  0  0  0  0
  -11.9912   -8.3127   -7.9282 H   0  0  0  0  0  0  0  0  0  0  0  0
  -12.8429   -8.8455   -9.4173 H   0  0  0  0  0  0  0  0  0  0  0  0
  -11.0546   -8.6760   -9.4173 H   0  0  0  0  0  0  0  0  0  0  0  0
  -11.5689    2.7993  -12.8589 H   0  0  0  0  0  0  0  0  0  0  0  0
   -8.0155    3.5186  -16.4109 H   0  0  0  0  0  0  0  0  0  0  0  0
   -6.5130    4.3485  -16.4766 H   0  0  0  0  0  0  0  0  0  0  0  0
   -6.3488    3.1010  -17.7586 H   0  0  0  0  0  0  0  0  0  0  0  0
   -5.2688    4.5364  -17.7586 H   0  0  0  0  0  0  0  0  0  0  0  0
  1  2  1  0
  2  3  1  0
  3  4  1  0
  4  5  2  0
  5  6  1  0
  6  7  2  0
  7  8  1  0
  8  9  2  0
  9 10  1  0
 10 11  1  0
 11 12  1  0
 12 13  2  0
 13 14  1  0
 14 15  1  0
 15 16  1  0
 16 17  2  0
 16 18  1  0
 18 19  1  0
 19 20  1  0
 20 21  2  0
 21 22  1  0
 21 23  1  0
 23 24  1  0
 14 25  2  0
 25 26  1  0
 25 27  1  0
  9 28  1  0
 28 29  2  0
 29 30  1  0
 30 31  1  0
 31 32  1  0
 30  3  2  0
 28  5  1  0
 27 11  2  0
 24 19  2  0
  1 33  1  0
  1 34  1  0
  1 35  1  0
  4 36  1  0
  7 37  1  0
  8 38  1  0
 12 39  1  0
 13 40  1  0
 15 41  1  0
 18 42  1  0
 20 43  1  0
 22 44  1  0
 22 45  1  0
 22 46  1  0
 27 47  1  0
 29 48  1  0
 32 49  1  0
 32 50  1  0
 32 51  1  0
M  END
>  <meeko>  (3) 
{"is_sidechain": false}

>  <vina_affinity_kcal_mol>  (3) 
-7.911

>  <pose_rank>  (3) 
3

$$$$

     RDKit          3D

 51 54  0  0  0  0  0  0  0  0999 V2000
   -6.5730    4.4480  -17.6390 C   0  0  0  0  0  0  0  0  0  0  0  0
   -7.9880    4.4140  -17.7730 O   0  0  0  0  0  0  0  0  0  0  0  0
   -8.7080    3.7320  -16.8280 C   0  0  0  0  0  0  0  0  0  0  0  0
   -8.4900    2.3830  -16.5130 C   0  0  0  0  0  0  0  0  0  0  0  0
   -9.2010    1.7220  -15.5190 C   0  0  0  0  0  0  0  0  0  0  0  0
   -8.9280    0.4270  -15.2760 N   0  0  0  0  0  0  0  0  0  0  0  0
   -9.6060   -0.2020  -14.2920 C   0  0  0  0  0  0  0  0  0  0  0  0
  -10.5790    0.4000  -13.5260 C   0  0  0  0  0  0  0  0  0  0  0  0
  -10.8760    1.7300  -13.8010 C   0  0  0  0  0  0  0  0  0  0  0  0
  -11.8200    2.3970  -13.0460 O   0  0  0  0  0  0  0  0  0  0  0  0
  -12.3210    1.7340  -11.9480 C   0  0  0  0  0  0  0  0  0  0  0  0
  -13.6860    1.8670  -11.7060 C   0  0  0  0  0  0  0  0  0  0  0  0
  -14.2810    1.2040  -10.6260 C   0  0  0  0  0  0  0  0  0  0  0  0
  -13.5190    0.3890   -9.7860 C   0  0  0  0  0  0  0  0  0  0  0  0
  -14.0560   -0.3110   -8.6790 N   0  0  0  0  0  0  0  0  0  0  0  0
  -14.5980   -1.5850   -8.6480 C   0  0  0  0  0  0  0  0  0  0  0  0
  -14.7250   -2.3170   -9.6220 O   0  0  0  0  0  0  0  0  0  0  0  0
  -14.9840   -1.9220   -7.3690 N   0  0  0  0  0  0  0  0  0  0  0  0
  -15.5700   -3.1140   -7.0000 C   0  0  0  0  0  0  0  0  0  0  0  0
  -14.9820   -4.3760   -6.7650 C   0  0  0  0  0  0  0  0  0  0  0  0
  -16.0340   -5.1910   -6.4290 C   0  0  0  0  0  0  0  0  0  0  0  0
  -16.1600   -6.6110   -6.0610 C   0  0  0  0  0  0  0  0  0  0  0  0
  -17.1830   -4.4670   -6.4590 O   0  0  0  0  0  0  0  0  0  0  0  0
  -16.8950   -3.1630   -6.8180 N   0  0  0  0  0  0  0  0  0  0  0  0
  -12.1440    0.2440  -10.0630 C   0  0  0  0  0  0  0  0  0  0  0  0
  -11.1420   -0.7660   -9.0730 Cl  0  0  0  0  0  0  0  0  0  0  0  0
  -11.5460    0.9050  -11.1390 C   0  0  0  0  0  0  0  0  0  0  0  0
  -10.1750    2.4340  -14.7990 C   0  0  0  0  0  0  0  0  0  0  0  0
  -10.4080    3.7890  -15.1090 C   0  0  0  0  0  0  0  0  0  0  0  0
   -9.7010    4.4330  -16.1290 C   0  0  0  0  0  0  0  0  0  0  0  0
  -10.0590    5.7460  -16.2880 O   0  0  0  0  0  0  0  0  0  0  0  0
  -11.4410    6.0120  -16.4960 C   0  0  0  0  0  0  0  0  0  0  0  0
   -6.3058    4.4544  -16.5720 H   0  0  0  0  0  0  0  0  0  0  0  0
   -6.1376    3.5601  -18.1207 H   0  0  0  0  0  0  0  0  0  0  0  0
   -6.1808    5.3558  -18.1207 H   0  0  0  0  0  0  0  0  0  0  0  0
   -7.7259    1.8261  -17.0751 H   0  0  0  0  0  0  0  0  0  0  0  0
   -9.3671   -1.2567  -14.0907 H   0  0  0  0  0  0  0  0  0  0  0  0
  -11.1005   -0.1494  -12.7284 H   0  0  0  0  0  0  0  0  0  0  0  0
  -14.3000    2.4964  -12.3670 H   0  0  0  0  0  0  0  0  0  0  0  0
  -15.3578    1.3260  -10.4374 H   0  0  0  0  0  0  0  0  0  0  0  0
  -14.0760    0.2170   -7.8170 H   0  0  0  0  0  0  0  0  0  0  0  0
  -14.8220   -1.2980   -6.5970 H   0  0  0  0  0  0  0  0  0  0  0  0
  -13.9179   -4.6459   -6.8355 H   0  0  0  0  0  0  0  0  0  0  0  0
  -16.1685   -6.7064   -4.9652 H   0  0  0  0  0  0  0  0  0  0  0  0
  -17.0975   -7.0144   -6.4714 H   0  0  0  0  0  0  0  0  0  0  0  0
  -15.3082   -7.1731   -6.4714 H   0  0  0  0  0  0  0  0  0  0  0  0
  -10.4738    0.7723  -11.3456 H   0  0  0  0  0  0  0  0  0  0  0  0
  -11.1610    4.3511  -14.5371 H   0  0  0  0  0  0  0  0  0  0  0  0
  -11.9461    6.1092  -15.5237 H   0  0  0  0  0  0  0  0  0  0  0  0
  -11.5530    6.9482  -17.0626 H   0  0  0  0  0  0  0  0  0  0  0  0
  -11.8925    5.1843  -17.0626 H   0  0  0  0  0  0  0  0  0  0  0  0
  1  2  1  0
  2  3  1  0
  3  4  1  0
  4  5  2  0
  5  6  1  0
  6  7  2  0
  7  8  1  0
  8  9  2  0
  9 10  1  0
 10 11  1  0
 11 12  1  0
 12 13  2  0
 13 14  1  0
 14 15  1  0
 15 16  1  0
 16 17  2  0
 16 18  1  0
 18 19  1  0
 19 20  1  0
 20 21  2  0
 21 22  1  0
 21 23  1  0
 23 24  1  0
 14 25  2  0
 25 26  1  0
 25 27  1  0
  9 28  1  0
 28 29  2  0
 29 30  1  0
 30 31  1  0
 31 32  1  0
 30  3  2  0
 28  5  1  0
 27 11  2  0
 24 19  2  0
  1 33  1  0
  1 34  1  0
  1 35  1  0
  4 36  1  0
  7 37  1  0
  8 38  1  0
 12 39  1  0
 13 40  1  0
 15 41  1  0
 18 42  1  0
 20 43  1  0
 22 44  1  0
 22 45  1  0
 22 46  1  0
 27 47  1  0
 29 48  1  0
 32 49  1  0
 32 50  1  0
 32 51  1  0
M  END
>  <meeko>  (4) 
{"is_sidechain": false}

>  <vina_affinity_kcal_mol>  (4) 
-7.907

>  <pose_rank>  (4) 
4

$$$$

     RDKit          3D

 51 54  0  0  0  0  0  0  0  0999 V2000
   -7.7140    5.2940  -18.8240 C   0  0  0  0  0  0  0  0  0  0  0  0
   -7.5220    5.1990  -17.4190 O   0  0  0  0  0  0  0  0  0  0  0  0
   -7.7420    3.9880  -16.8190 C   0  0  0  0  0  0  0  0  0  0  0  0
   -6.7250    3.2140  -16.2420 C   0  0  0  0  0  0  0  0  0  0  0  0
   -6.9760    2.0080  -15.5980 C   0  0  0  0  0  0  0  0  0  0  0  0
   -5.9430    1.3290  -15.0660 N   0  0  0  0  0  0  0  0  0  0  0  0
   -6.1980    0.1690  -14.4210 C   0  0  0  0  0  0  0  0  0  0  0  0
   -7.4570   -0.3720  -14.2860 C   0  0  0  0  0  0  0  0  0  0  0  0
   -8.5150    0.3220  -14.8620 C   0  0  0  0  0  0  0  0  0  0  0  0
   -9.8050   -0.1550  -14.7330 O   0  0  0  0  0  0  0  0  0  0  0  0
  -10.4060    0.0020  -13.5050 C   0  0  0  0  0  0  0  0  0  0  0  0
  -11.1400    1.1710  -13.3110 C   0  0  0  0  0  0  0  0  0  0  0  0
  -11.8050    1.3960  -12.1010 C   0  0  0  0  0  0  0  0  0  0  0  0
  -11.7570    0.4480  -11.0760 C   0  0  0  0  0  0  0  0  0  0  0  0
  -12.4070    0.6110   -9.8300 N   0  0  0  0  0  0  0  0  0  0  0  0
  -13.6870    0.2230   -9.4710 C   0  0  0  0  0  0  0  0  0  0  0  0
  -14.4920   -0.3170  -10.2190 O   0  0  0  0  0  0  0  0  0  0  0  0
  -13.9410    0.5320   -8.1520 N   0  0  0  0  0  0  0  0  0  0  0  0
  -15.1240    0.2890   -7.4880 C   0  0  0  0  0  0  0  0  0  0  0  0
  -15.4490   -0.7240   -6.5610 C   0  0  0  0  0  0  0  0  0  0  0  0
  -16.7590   -0.4820   -6.2290 C   0  0  0  0  0  0  0  0  0  0  0  0
  -17.7310   -1.1290   -5.3310 C   0  0  0  0  0  0  0  0  0  0  0  0
  -17.1960    0.6080   -6.9120 O   0  0  0  0  0  0  0  0  0  0  0  0
  -16.1710    1.0940   -7.7040 N   0  0  0  0  0  0  0  0  0  0  0  0
  -11.0320   -0.7410  -11.2990 C   0  0  0  0  0  0  0  0  0  0  0  0
  -10.9440   -1.9690  -10.0790 Cl  0  0  0  0  0  0  0  0  0  0  0  0
  -10.3650   -0.9690  -12.5060 C   0  0  0  0  0  0  0  0  0  0  0  0
   -8.3010    1.5480  -15.5200 C   0  0  0  0  0  0  0  0  0  0  0  0
   -9.3320    2.3130  -16.1010 C   0  0  0  0  0  0  0  0  0  0  0  0
   -9.0600    3.5120  -16.7670 C   0  0  0  0  0  0  0  0  0  0  0  0
  -10.1820    4.1190  -17.2670 O   0  0  0  0  0  0  0  0  0  0  0  0
  -10.7450    5.1660  -16.4850 C   0  0  0  0  0  0  0  0  0  0  0  0
   -8.6824    5.7732  -19.0302 H   0  0  0  0  0  0  0  0  0  0  0  0
   -6.9058    5.8962  -19.2646 H   0  0  0  0  0  0  0  0  0  0  0  0
   -7.7024    4.2862  -19.2646 H   0  0  0  0  0  0  0  0  0  0  0  0
   -5.6878    3.5754  -16.3013 H   0  0  0  0  0  0  0  0  0  0  0  0
   -5.3504   -0.3746  -13.9781 H   0  0  0  0  0  0  0  0  0  0  0  0
   -7.6191   -1.3155  -13.7441 H   0  0  0  0  0  0  0  0  0  0  0  0
  -11.1966    1.9208  -14.1139 H   0  0  0  0  0  0  0  0  0  0  0  0
  -12.3709    2.3279  -11.9553 H   0  0  0  0  0  0  0  0  0  0  0  0
  -11.8680    1.1130   -9.1370 H   0  0  0  0  0  0  0  0  0  0  0  0
  -13.2300    0.9410   -7.5690 H   0  0  0  0  0  0  0  0  0  0  0  0
  -14.7980   -1.5282   -6.1876 H   0  0  0  0  0  0  0  0  0  0  0  0
  -17.4466   -0.9397   -4.2854 H   0  0  0  0  0  0  0  0  0  0  0  0
  -18.7338   -0.7176   -5.5185 H   0  0  0  0  0  0  0  0  0  0  0  0
  -17.7384   -2.2129   -5.5185 H   0  0  0  0  0  0  0  0  0  0  0  0
   -9.8125   -1.9066  -12.6660 H   0  0  0  0  0  0  0  0  0  0  0  0
  -10.3713    1.9599  -16.0292 H   0  0  0  0  0  0  0  0  0  0  0  0
  -10.6201    4.9338  -15.4171 H   0  0  0  0  0  0  0  0  0  0  0  0
  -10.2340    6.1122  -16.7167 H   0  0  0  0  0  0  0  0  0  0  0  0
  -11.8161    5.2614  -16.7167 H   0  0  0  0  0  0  0  0  0  0  0  0
  1  2  1  0
  2  3  1  0
  3  4  1  0
  4  5  2  0
  5  6  1  0
  6  7  2  0
  7  8  1  0
  8  9  2  0
  9 10  1  0
 10 11  1  0
 11 12  1  0
 12 13  2  0
 13 14  1  0
 14 15  1  0
 15 16  1  0
 16 17  2  0
 16 18  1  0
 18 19  1  0
 19 20  1  0
 20 21  2  0
 21 22  1  0
 21 23  1  0
 23 24  1  0
 14 25  2  0
 25 26  1  0
 25 27  1  0
  9 28  1  0
 28 29  2  0
 29 30  1  0
 30 31  1  0
 31 32  1  0
 30  3  2  0
 28  5  1  0
 27 11  2  0
 24 19  2  0
  1 33  1  0
  1 34  1  0
  1 35  1  0
  4 36  1  0
  7 37  1  0
  8 38  1  0
 12 39  1  0
 13 40  1  0
 15 41  1  0
 18 42  1  0
 20 43  1  0
 22 44  1  0
 22 45  1  0
 22 46  1  0
 27 47  1  0
 29 48  1  0
 32 49  1  0
 32 50  1  0
 32 51  1  0
M  END
>  <meeko>  (5) 
{"is_sidechain": false}

>  <vina_affinity_kcal_mol>  (5) 
-7.887

>  <pose_rank>  (5) 
5

$$$$

     RDKit          3D

 51 54  0  0  0  0  0  0  0  0999 V2000
   -7.4110   -1.6220   -6.9410 C   0  0  0  0  0  0  0  0  0  0  0  0
   -7.8270   -2.4390   -8.0280 O   0  0  0  0  0  0  0  0  0  0  0  0
   -7.5000   -2.0390   -9.2960 C   0  0  0  0  0  0  0  0  0  0  0  0
   -6.2420   -1.5270   -9.6450 C   0  0  0  0  0  0  0  0  0  0  0  0
   -5.9150   -1.1700  -10.9480 C   0  0  0  0  0  0  0  0  0  0  0  0
   -4.6830   -0.6900  -11.2000 N   0  0  0  0  0  0  0  0  0  0  0  0
   -4.3640   -0.3670  -12.4720 C   0  0  0  0  0  0  0  0  0  0  0  0
   -5.2330   -0.4850  -13.5330 C   0  0  0  0  0  0  0  0  0  0  0  0
   -6.5140   -0.9550  -13.2610 C   0  0  0  0  0  0  0  0  0  0  0  0
   -7.4200   -1.1240  -14.2880 O   0  0  0  0  0  0  0  0  0  0  0  0
   -7.9880    0.0160  -14.8110 C   0  0  0  0  0  0  0  0  0  0  0  0
   -7.9130    0.1750  -16.1930 C   0  0  0  0  0  0  0  0  0  0  0  0
   -8.4880    1.2930  -16.8090 C   0  0  0  0  0  0  0  0  0  0  0  0
   -9.1560    2.2560  -16.0500 C   0  0  0  0  0  0  0  0  0  0  0  0
   -9.7610    3.4080  -16.6080 N   0  0  0  0  0  0  0  0  0  0  0  0
   -9.1760    4.4020  -17.3730 C   0  0  0  0  0  0  0  0  0  0  0  0
   -7.9880    4.4500  -17.6710 O   0  0  0  0  0  0  0  0  0  0  0  0
  -10.1090    5.3420  -17.7540 N   0  0  0  0  0  0  0  0  0  0  0  0
   -9.8490    6.4640  -18.5110 C   0  0  0  0  0  0  0  0  0  0  0  0
   -9.4140    7.7450  -18.1090 C   0  0  0  0  0  0  0  0  0  0  0  0
   -9.3230    8.4620  -19.2760 C   0  0  0  0  0  0  0  0  0  0  0  0
   -8.9370    9.8440  -19.6090 C   0  0  0  0  0  0  0  0  0  0  0  0
   -9.6810    7.6650  -20.3160 O   0  0  0  0  0  0  0  0  0  0  0  0
  -10.0120    6.4100  -19.8380 N   0  0  0  0  0  0  0  0  0  0  0  0
   -9.2450    2.0660  -14.6560 C   0  0  0  0  0  0  0  0  0  0  0  0
  -10.0760    3.2120  -13.6550 Cl  0  0  0  0  0  0  0  0  0  0  0  0
   -8.6720    0.9520  -14.0370 C   0  0  0  0  0  0  0  0  0  0  0  0
   -6.8810   -1.3300  -11.9550 C   0  0  0  0  0  0  0  0  0  0  0  0
   -8.1510   -1.8380  -11.6160 C   0  0  0  0  0  0  0  0  0  0  0  0
   -8.4730   -2.1700  -10.2960 C   0  0  0  0  0  0  0  0  0  0  0  0
   -9.7500   -2.6480  -10.1560 O   0  0  0  0  0  0  0  0  0  0  0  0
  -10.7040   -2.2180  -11.1190 C   0  0  0  0  0  0  0  0  0  0  0  0
   -7.6634   -2.1178   -5.9921 H   0  0  0  0  0  0  0  0  0  0  0  0
   -6.3235   -1.4656   -6.9950 H   0  0  0  0  0  0  0  0  0  0  0  0
   -7.9242   -0.6506   -6.9950 H   0  0  0  0  0  0  0  0  0  0  0  0
   -5.4846   -1.4031   -8.8570 H   0  0  0  0  0  0  0  0  0  0  0  0
   -3.3510    0.0124  -12.6717 H   0  0  0  0  0  0  0  0  0  0  0  0
   -4.9268   -0.2183  -14.5553 H   0  0  0  0  0  0  0  0  0  0  0  0
   -7.3992   -0.5821  -16.8036 H   0  0  0  0  0  0  0  0  0  0  0  0
   -8.4129    1.4138  -17.8998 H   0  0  0  0  0  0  0  0  0  0  0  0
  -10.7380    3.5260  -16.3720 H   0  0  0  0  0  0  0  0  0  0  0  0
  -11.0800    5.2350  -17.5140 H   0  0  0  0  0  0  0  0  0  0  0  0
   -9.1964    8.0916  -17.0880 H   0  0  0  0  0  0  0  0  0  0  0  0
   -8.7778   10.4138  -18.6816 H   0  0  0  0  0  0  0  0  0  0  0  0
   -8.0074    9.8335  -20.1970 H   0  0  0  0  0  0  0  0  0  0  0  0
   -9.7375   10.3167  -20.1970 H   0  0  0  0  0  0  0  0  0  0  0  0
   -8.7599    0.8150  -12.9491 H   0  0  0  0  0  0  0  0  0  0  0  0
   -8.9044   -1.9762  -12.4055 H   0  0  0  0  0  0  0  0  0  0  0  0
  -11.5902   -1.8186  -10.6042 H   0  0  0  0  0  0  0  0  0  0  0  0
  -10.2608   -1.4326  -11.7489 H   0  0  0  0  0  0  0  0  0  0  0  0
  -10.9989   -3.0702  -11.7489 H   0  0  0  0  0  0  0  0  0  0  0  0
  1  2  1  0
  2  3  1  0
  3  4  1  0
  4  5  2  0
  5  6  1  0
  6  7  2  0
  7  8  1  0
  8  9  2  0
  9 10  1  0
 10 11  1  0
 11 12  1  0
 12 13  2  0
 13 14  1  0
 14 15  1  0
 15 16  1  0
 16 17  2  0
 16 18  1  0
 18 19  1  0
 19 20  1  0
 20 21  2  0
 21 22  1  0
 21 23  1  0
 23 24  1  0
 14 25  2  0
 25 26  1  0
 25 27  1  0
  9 28  1  0
 28 29  2  0
 29 30  1  0
 30 31  1  0
 31 32  1  0
 30  3  2  0
 28  5  1  0
 27 11  2  0
 24 19  2  0
  1 33  1  0
  1 34  1  0
  1 35  1  0
  4 36  1  0
  7 37  1  0
  8 38  1  0
 12 39  1  0
 13 40  1  0
 15 41  1  0
 18 42  1  0
 20 43  1  0
 22 44  1  0
 22 45  1  0
 22 46  1  0
 27 47  1  0
 29 48  1  0
 32 49  1  0
 32 50  1  0
 32 51  1  0
M  END
>  <meeko>  (6) 
{"is_sidechain": false}

>  <vina_affinity_kcal_mol>  (6) 
-7.801

>  <pose_rank>  (6) 
6

$$$$

     RDKit          3D

 51 54  0  0  0  0  0  0  0  0999 V2000
   -7.8000    5.2560  -18.4300 C   0  0  0  0  0  0  0  0  0  0  0  0
   -7.5330    4.0850  -17.6700 O   0  0  0  0  0  0  0  0  0  0  0  0
   -8.3670    3.7920  -16.6240 C   0  0  0  0  0  0  0  0  0  0  0  0
   -9.5990    4.4300  -16.4140 C   0  0  0  0  0  0  0  0  0  0  0  0
  -10.4520    4.0850  -15.3720 C   0  0  0  0  0  0  0  0  0  0  0  0
  -11.6180    4.7440  -15.2430 N   0  0  0  0  0  0  0  0  0  0  0  0
  -12.4530    4.3880  -14.2430 C   0  0  0  0  0  0  0  0  0  0  0  0
  -12.1760    3.3950  -13.3310 C   0  0  0  0  0  0  0  0  0  0  0  0
  -10.9570    2.7370  -13.4530 C   0  0  0  0  0  0  0  0  0  0  0  0
  -10.6350    1.7110  -12.5870 O   0  0  0  0  0  0  0  0  0  0  0  0
  -11.6450    1.2420  -11.7760 C   0  0  0  0  0  0  0  0  0  0  0  0
  -12.8750    1.8890  -11.8710 C   0  0  0  0  0  0  0  0  0  0  0  0
  -13.9620    1.4580  -11.1030 C   0  0  0  0  0  0  0  0  0  0  0  0
  -13.8340    0.3650  -10.2410 C   0  0  0  0  0  0  0  0  0  0  0  0
  -14.8920   -0.1240   -9.4370 N   0  0  0  0  0  0  0  0  0  0  0  0
  -15.5320    0.5040   -8.3830 C   0  0  0  0  0  0  0  0  0  0  0  0
  -15.2480    1.6150   -7.9520 O   0  0  0  0  0  0  0  0  0  0  0  0
  -16.5360   -0.2920   -7.8750 N   0  0  0  0  0  0  0  0  0  0  0  0
  -17.3540    0.0350   -6.8150 C   0  0  0  0  0  0  0  0  0  0  0  0
  -18.6790    0.5210   -6.8120 C   0  0  0  0  0  0  0  0  0  0  0  0
  -18.9920    0.6690   -5.4840 C   0  0  0  0  0  0  0  0  0  0  0  0
  -20.1840    1.1240   -4.7500 C   0  0  0  0  0  0  0  0  0  0  0  0
  -17.9230    0.2950   -4.7330 O   0  0  0  0  0  0  0  0  0  0  0  0
  -16.8940   -0.1030   -5.5660 N   0  0  0  0  0  0  0  0  0  0  0  0
  -12.5890   -0.2940  -10.1780 C   0  0  0  0  0  0  0  0  0  0  0  0
  -12.3640   -1.6670   -9.1450 Cl  0  0  0  0  0  0  0  0  0  0  0  0
  -11.5010    0.1340  -10.9430 C   0  0  0  0  0  0  0  0  0  0  0  0
  -10.0670    3.0560  -14.4970 C   0  0  0  0  0  0  0  0  0  0  0  0
   -8.8300    2.4110  -14.6930 C   0  0  0  0  0  0  0  0  0  0  0  0
   -7.9710    2.7860  -15.7320 C   0  0  0  0  0  0  0  0  0  0  0  0
   -6.8160    2.0490  -15.7690 O   0  0  0  0  0  0  0  0  0  0  0  0
   -5.6810    2.6060  -15.1170 C   0  0  0  0  0  0  0  0  0  0  0  0
   -7.9922    6.0988  -17.7497 H   0  0  0  0  0  0  0  0  0  0  0  0
   -6.9316    5.4874  -19.0643 H   0  0  0  0  0  0  0  0  0  0  0  0
   -8.6829    5.0881  -19.0643 H   0  0  0  0  0  0  0  0  0  0  0  0
   -9.9016    5.2344  -17.1006 H   0  0  0  0  0  0  0  0  0  0  0  0
  -13.4100    4.9227  -14.1521 H   0  0  0  0  0  0  0  0  0  0  0  0
  -12.8906    3.1323  -12.5371 H   0  0  0  0  0  0  0  0  0  0  0  0
  -12.9922    2.7435  -12.5537 H   0  0  0  0  0  0  0  0  0  0  0  0
  -14.9254    1.9836  -11.1781 H   0  0  0  0  0  0  0  0  0  0  0  0
  -15.1750   -1.0720   -9.6480 H   0  0  0  0  0  0  0  0  0  0  0  0
  -16.7530   -1.1810   -8.2920 H   0  0  0  0  0  0  0  0  0  0  0  0
  -19.3188    0.7339   -7.6811 H   0  0  0  0  0  0  0  0  0  0  0  0
  -19.9978    1.0529   -3.6682 H   0  0  0  0  0  0  0  0  0  0  0  0
  -20.4022    2.1686   -5.0166 H   0  0  0  0  0  0  0  0  0  0  0  0
  -21.0428    0.4905   -5.0166 H   0  0  0  0  0  0  0  0  0  0  0  0
  -10.5400   -0.3985  -10.8883 H   0  0  0  0  0  0  0  0  0  0  0  0
   -8.5335    1.5964  -14.0158 H   0  0  0  0  0  0  0  0  0  0  0  0
   -5.8152    2.5402  -14.0272 H   0  0  0  0  0  0  0  0  0  0  0  0
   -4.7794    2.0480  -15.4098 H   0  0  0  0  0  0  0  0  0  0  0  0
   -5.5708    3.6606  -15.4098 H   0  0  0  0  0  0  0  0  0  0  0  0
  1  2  1  0
  2  3  1  0
  3  4  1  0
  4  5  2  0
  5  6  1  0
  6  7  2  0
  7  8  1  0
  8  9  2  0
  9 10  1  0
 10 11  1  0
 11 12  1  0
 12 13  2  0
 13 14  1  0
 14 15  1  0
 15 16  1  0
 16 17  2  0
 16 18  1  0
 18 19  1  0
 19 20  1  0
 20 21  2  0
 21 22  1  0
 21 23  1  0
 23 24  1  0
 14 25  2  0
 25 26  1  0
 25 27  1  0
  9 28  1  0
 28 29  2  0
 29 30  1  0
 30 31  1  0
 31 32  1  0
 30  3  2  0
 28  5  1  0
 27 11  2  0
 24 19  2  0
  1 33  1  0
  1 34  1  0
  1 35  1  0
  4 36  1  0
  7 37  1  0
  8 38  1  0
 12 39  1  0
 13 40  1  0
 15 41  1  0
 18 42  1  0
 20 43  1  0
 22 44  1  0
 22 45  1  0
 22 46  1  0
 27 47  1  0
 29 48  1  0
 32 49  1  0
 32 50  1  0
 32 51  1  0
M  END
>  <meeko>  (7) 
{"is_sidechain": false}

>  <vina_affinity_kcal_mol>  (7) 
-7.772

>  <pose_rank>  (7) 
7

$$$$

     RDKit          3D

 51 54  0  0  0  0  0  0  0  0999 V2000
  -11.4270    0.4610   -3.6900 C   0  0  0  0  0  0  0  0  0  0  0  0
  -10.6010    0.1630   -4.8070 O   0  0  0  0  0  0  0  0  0  0  0  0
  -11.1780    0.1470   -6.0490 C   0  0  0  0  0  0  0  0  0  0  0  0
  -12.5500    0.3410   -6.2670 C   0  0  0  0  0  0  0  0  0  0  0  0
  -13.1090    0.3670   -7.5390 C   0  0  0  0  0  0  0  0  0  0  0  0
  -14.4350    0.5630   -7.6620 N   0  0  0  0  0  0  0  0  0  0  0  0
  -14.9670    0.6110   -8.9030 C   0  0  0  0  0  0  0  0  0  0  0  0
  -14.2350    0.4550  -10.0580 C   0  0  0  0  0  0  0  0  0  0  0  0
  -12.8700    0.2250   -9.9220 C   0  0  0  0  0  0  0  0  0  0  0  0
  -12.0770    0.0910  -11.0440 O   0  0  0  0  0  0  0  0  0  0  0  0
  -11.9520    1.1980  -11.8530 C   0  0  0  0  0  0  0  0  0  0  0  0
  -10.6950    1.4280  -12.4100 C   0  0  0  0  0  0  0  0  0  0  0  0
  -10.4880    2.5160  -13.2650 C   0  0  0  0  0  0  0  0  0  0  0  0
  -11.5410    3.3780  -13.5850 C   0  0  0  0  0  0  0  0  0  0  0  0
  -11.4020    4.4950  -14.4440 N   0  0  0  0  0  0  0  0  0  0  0  0
  -10.7770    4.5580  -15.6780 C   0  0  0  0  0  0  0  0  0  0  0  0
  -10.2010    3.6230  -16.2210 O   0  0  0  0  0  0  0  0  0  0  0  0
  -10.8830    5.8220  -16.2170 N   0  0  0  0  0  0  0  0  0  0  0  0
  -10.3590    6.2210  -17.4270 C   0  0  0  0  0  0  0  0  0  0  0  0
  -10.9610    6.2620  -18.7030 C   0  0  0  0  0  0  0  0  0  0  0  0
   -9.9780    6.7390  -19.5350 C   0  0  0  0  0  0  0  0  0  0  0  0
   -9.9010    7.0350  -20.9750 C   0  0  0  0  0  0  0  0  0  0  0  0
   -8.8550    6.9720  -18.8060 O   0  0  0  0  0  0  0  0  0  0  0  0
   -9.0920    6.6470  -17.4830 N   0  0  0  0  0  0  0  0  0  0  0  0
  -12.8110    3.1150  -13.0340 C   0  0  0  0  0  0  0  0  0  0  0  0
  -14.1660    4.1320  -13.4030 Cl  0  0  0  0  0  0  0  0  0  0  0  0
  -13.0220    2.0300  -12.1790 C   0  0  0  0  0  0  0  0  0  0  0  0
  -12.2670    0.1940   -8.6510 C   0  0  0  0  0  0  0  0  0  0  0  0
  -10.8870   -0.0080   -8.4450 C   0  0  0  0  0  0  0  0  0  0  0  0
  -10.3440   -0.0560   -7.1570 C   0  0  0  0  0  0  0  0  0  0  0  0
   -8.9880   -0.2580   -7.1510 O   0  0  0  0  0  0  0  0  0  0  0  0
   -8.5020   -1.3570   -7.9130 C   0  0  0  0  0  0  0  0  0  0  0  0
  -10.8732    0.2612   -2.7608 H   0  0  0  0  0  0  0  0  0  0  0  0
  -11.7188    1.5211   -3.7222 H   0  0  0  0  0  0  0  0  0  0  0  0
  -12.3284   -0.1686   -3.7222 H   0  0  0  0  0  0  0  0  0  0  0  0
  -13.2092    0.4779   -5.3971 H   0  0  0  0  0  0  0  0  0  0  0  0
  -16.0492    0.7851   -8.9957 H   0  0  0  0  0  0  0  0  0  0  0  0
  -14.7102    0.5100  -11.0485 H   0  0  0  0  0  0  0  0  0  0  0  0
   -9.8609    0.7501  -12.1760 H   0  0  0  0  0  0  0  0  0  0  0  0
   -9.4887    2.6945  -13.6888 H   0  0  0  0  0  0  0  0  0  0  0  0
  -11.7770    5.3580  -14.0740 H   0  0  0  0  0  0  0  0  0  0  0  0
  -11.4010    6.5450  -15.7450 H   0  0  0  0  0  0  0  0  0  0  0  0
  -11.9886    5.9757  -18.9713 H   0  0  0  0  0  0  0  0  0  0  0  0
   -9.6264    8.0905  -21.1182 H   0  0  0  0  0  0  0  0  0  0  0  0
   -9.1403    6.3917  -21.4414 H   0  0  0  0  0  0  0  0  0  0  0  0
  -10.8787    6.8439  -21.4414 H   0  0  0  0  0  0  0  0  0  0  0  0
  -14.0230    1.8343  -11.7671 H   0  0  0  0  0  0  0  0  0  0  0  0
  -10.2243   -0.1303   -9.3144 H   0  0  0  0  0  0  0  0  0  0  0  0
   -8.1521   -2.1481   -7.2335 H   0  0  0  0  0  0  0  0  0  0  0  0
   -9.3105   -1.7495   -8.5473 H   0  0  0  0  0  0  0  0  0  0  0  0
   -7.6677   -1.0230   -8.5473 H   0  0  0  0  0  0  0  0  0  0  0  0
  1  2  1  0
  2  3  1  0
  3  4  1  0
  4  5  2  0
  5  6  1  0
  6  7  2  0
  7  8  1  0
  8  9  2  0
  9 10  1  0
 10 11  1  0
 11 12  1  0
 12 13  2  0
 13 14  1  0
 14 15  1  0
 15 16  1  0
 16 17  2  0
 16 18  1  0
 18 19  1  0
 19 20  1  0
 20 21  2  0
 21 22  1  0
 21 23  1  0
 23 24  1  0
 14 25  2  0
 25 26  1  0
 25 27  1  0
  9 28  1  0
 28 29  2  0
 29 30  1  0
 30 31  1  0
 31 32  1  0
 30  3  2  0
 28  5  1  0
 27 11  2  0
 24 19  2  0
  1 33  1  0
  1 34  1  0
  1 35  1  0
  4 36  1  0
  7 37  1  0
  8 38  1  0
 12 39  1  0
 13 40  1  0
 15 41  1  0
 18 42  1  0
 20 43  1  0
 22 44  1  0
 22 45  1  0
 22 46  1  0
 27 47  1  0
 29 48  1  0
 32 49  1  0
 32 50  1  0
 32 51  1  0
M  END
>  <meeko>  (8) 
{"is_sidechain": false}

>  <vina_affinity_kcal_mol>  (8) 
-7.763

>  <pose_rank>  (8) 
8

$$$$

     RDKit          3D

 51 54  0  0  0  0  0  0  0  0999 V2000
  -16.2350   -1.9360   -5.7780 C   0  0  0  0  0  0  0  0  0  0  0  0
  -15.7650   -0.5980   -5.8850 O   0  0  0  0  0  0  0  0  0  0  0  0
  -15.0860   -0.2440   -7.0200 C   0  0  0  0  0  0  0  0  0  0  0  0
  -13.8970   -0.8610   -7.4360 C   0  0  0  0  0  0  0  0  0  0  0  0
  -13.2490   -0.5170   -8.6160 C   0  0  0  0  0  0  0  0  0  0  0  0
  -12.1140   -1.1620   -8.9450 N   0  0  0  0  0  0  0  0  0  0  0  0
  -11.5020   -0.8380  -10.1040 C   0  0  0  0  0  0  0  0  0  0  0  0
  -11.9620    0.1280  -10.9710 C   0  0  0  0  0  0  0  0  0  0  0  0
  -13.1190    0.8100  -10.6100 C   0  0  0  0  0  0  0  0  0  0  0  0
  -13.6460    1.7690  -11.4520 O   0  0  0  0  0  0  0  0  0  0  0  0
  -12.8030    2.2870  -12.4100 C   0  0  0  0  0  0  0  0  0  0  0  0
  -13.3860    3.0920  -13.3870 C   0  0  0  0  0  0  0  0  0  0  0  0
  -12.5970    3.6810  -14.3810 C   0  0  0  0  0  0  0  0  0  0  0  0
  -11.2140    3.4810  -14.4010 C   0  0  0  0  0  0  0  0  0  0  0  0
  -10.3570    4.0470  -15.3760 N   0  0  0  0  0  0  0  0  0  0  0  0
  -10.6140    5.0970  -16.2420 C   0  0  0  0  0  0  0  0  0  0  0  0
  -11.6780    5.7000  -16.3160 O   0  0  0  0  0  0  0  0  0  0  0  0
   -9.5100    5.3730  -17.0190 N   0  0  0  0  0  0  0  0  0  0  0  0
   -9.4400    6.3500  -17.9880 C   0  0  0  0  0  0  0  0  0  0  0  0
   -9.3700    7.7530  -17.8530 C   0  0  0  0  0  0  0  0  0  0  0  0
   -9.3200    8.2230  -19.1420 C   0  0  0  0  0  0  0  0  0  0  0  0
   -9.2380    9.5630  -19.7480 C   0  0  0  0  0  0  0  0  0  0  0  0
   -9.3590    7.1710  -20.0000 O   0  0  0  0  0  0  0  0  0  0  0  0
   -9.4340    5.9940  -19.2780 N   0  0  0  0  0  0  0  0  0  0  0  0
  -10.6380    2.6850  -13.3900 C   0  0  0  0  0  0  0  0  0  0  0  0
   -8.9280    2.4110  -13.3430 Cl  0  0  0  0  0  0  0  0  0  0  0  0
  -11.4230    2.0950  -12.3960 C   0  0  0  0  0  0  0  0  0  0  0  0
  -13.8060    0.4870   -9.4250 C   0  0  0  0  0  0  0  0  0  0  0  0
  -14.9970    1.1200   -9.0150 C   0  0  0  0  0  0  0  0  0  0  0  0
  -15.6250    0.7790   -7.8130 C   0  0  0  0  0  0  0  0  0  0  0  0
  -16.7700    1.4960   -7.5800 O   0  0  0  0  0  0  0  0  0  0  0  0
  -18.0010    0.7940   -7.7060 C   0  0  0  0  0  0  0  0  0  0  0  0
  -16.3303   -2.2073   -4.7163 H   0  0  0  0  0  0  0  0  0  0  0  0
  -17.2165   -2.0201   -6.2675 H   0  0  0  0  0  0  0  0  0  0  0  0
  -15.5217   -2.6154   -6.2675 H   0  0  0  0  0  0  0  0  0  0  0  0
  -13.4605   -1.6479   -6.8034 H   0  0  0  0  0  0  0  0  0  0  0  0
  -10.5815   -1.3775  -10.3716 H   0  0  0  0  0  0  0  0  0  0  0  0
  -11.4357    0.3511  -11.9108 H   0  0  0  0  0  0  0  0  0  0  0  0
  -14.4722    3.2652  -13.3765 H   0  0  0  0  0  0  0  0  0  0  0  0
  -13.0690    4.3065  -15.1530 H   0  0  0  0  0  0  0  0  0  0  0  0
   -9.4610    3.5870  -15.4660 H   0  0  0  0  0  0  0  0  0  0  0  0
   -8.6480    4.8710  -16.8910 H   0  0  0  0  0  0  0  0  0  0  0  0
   -9.3581    8.3394  -16.9224 H   0  0  0  0  0  0  0  0  0  0  0  0
   -9.1915   10.3225  -18.9536 H   0  0  0  0  0  0  0  0  0  0  0  0
   -8.3341    9.6288  -20.3715 H   0  0  0  0  0  0  0  0  0  0  0  0
  -10.1271    9.7385  -20.3715 H   0  0  0  0  0  0  0  0  0  0  0  0
  -10.9557    1.4844  -11.6094 H   0  0  0  0  0  0  0  0  0  0  0  0
  -15.4413    1.8978   -9.6534 H   0  0  0  0  0  0  0  0  0  0  0  0
  -18.3980    0.5676   -6.7055 H   0  0  0  0  0  0  0  0  0  0  0  0
  -18.7233    1.4160   -8.2550 H   0  0  0  0  0  0  0  0  0  0  0  0
  -17.8334   -0.1444   -8.2550 H   0  0  0  0  0  0  0  0  0  0  0  0
  1  2  1  0
  2  3  1  0
  3  4  1  0
  4  5  2  0
  5  6  1  0
  6  7  2  0
  7  8  1  0
  8  9  2  0
  9 10  1  0
 10 11  1  0
 11 12  1  0
 12 13  2  0
 13 14  1  0
 14 15  1  0
 15 16  1  0
 16 17  2  0
 16 18  1  0
 18 19  1  0
 19 20  1  0
 20 21  2  0
 21 22  1  0
 21 23  1  0
 23 24  1  0
 14 25  2  0
 25 26  1  0
 25 27  1  0
  9 28  1  0
 28 29  2  0
 29 30  1  0
 30 31  1  0
 31 32  1  0
 30  3  2  0
 28  5  1  0
 27 11  2  0
 24 19  2  0
  1 33  1  0
  1 34  1  0
  1 35  1  0
  4 36  1  0
  7 37  1  0
  8 38  1  0
 12 39  1  0
 13 40  1  0
 15 41  1  0
 18 42  1  0
 20 43  1  0
 22 44  1  0
 22 45  1  0
 22 46  1  0
 27 47  1  0
 29 48  1  0
 32 49  1  0
 32 50  1  0
 32 51  1  0
M  END
>  <meeko>  (9) 
{"is_sidechain": false}

>  <vina_affinity_kcal_mol>  (9) 
-7.683

>  <pose_rank>  (9) 
9

$$$$

     RDKit          3D

 51 54  0  0  0  0  0  0  0  0999 V2000
  -12.1300   -3.8700   -6.7960 C   0  0  0  0  0  0  0  0  0  0  0  0
  -11.9130   -2.4930   -7.0780 O   0  0  0  0  0  0  0  0  0  0  0  0
  -11.3020   -2.1670   -8.2590 C   0  0  0  0  0  0  0  0  0  0  0  0
   -9.9130   -2.2070   -8.4500 C   0  0  0  0  0  0  0  0  0  0  0  0
   -9.3170   -1.9160   -9.6710 C   0  0  0  0  0  0  0  0  0  0  0  0
   -7.9760   -1.9820   -9.7700 N   0  0  0  0  0  0  0  0  0  0  0  0
   -7.4050   -1.7200  -10.9660 C   0  0  0  0  0  0  0  0  0  0  0  0
   -8.1130   -1.3730  -12.0950 C   0  0  0  0  0  0  0  0  0  0  0  0
   -9.4960   -1.2800  -11.9770 C   0  0  0  0  0  0  0  0  0  0  0  0
  -10.2630   -0.9650  -13.0810 O   0  0  0  0  0  0  0  0  0  0  0  0
   -9.8580    0.1150  -13.8320 C   0  0  0  0  0  0  0  0  0  0  0  0
  -10.1220    1.3780  -13.3060 C   0  0  0  0  0  0  0  0  0  0  0  0
   -9.7200    2.5290  -13.9930 C   0  0  0  0  0  0  0  0  0  0  0  0
   -9.0360    2.4290  -15.2070 C   0  0  0  0  0  0  0  0  0  0  0  0
   -8.5990    3.5500  -15.9530 N   0  0  0  0  0  0  0  0  0  0  0  0
   -9.3530    4.4110  -16.7320 C   0  0  0  0  0  0  0  0  0  0  0  0
  -10.5590    4.3100  -16.9230 O   0  0  0  0  0  0  0  0  0  0  0  0
   -8.5620    5.4020  -17.2730 N   0  0  0  0  0  0  0  0  0  0  0  0
   -9.0020    6.4090  -18.1040 C   0  0  0  0  0  0  0  0  0  0  0  0
   -9.2210    6.4000  -19.4990 C   0  0  0  0  0  0  0  0  0  0  0  0
   -9.6540    7.6690  -19.7900 C   0  0  0  0  0  0  0  0  0  0  0  0
  -10.0620    8.3610  -21.0250 C   0  0  0  0  0  0  0  0  0  0  0  0
   -9.6930    8.3990  -18.6450 O   0  0  0  0  0  0  0  0  0  0  0  0
   -9.2840    7.6100  -17.5850 N   0  0  0  0  0  0  0  0  0  0  0  0
   -8.7540    1.1430  -15.7120 C   0  0  0  0  0  0  0  0  0  0  0  0
   -7.8940    0.9440  -17.2030 Cl  0  0  0  0  0  0  0  0  0  0  0  0
   -9.1550   -0.0090  -15.0300 C   0  0  0  0  0  0  0  0  0  0  0  0
  -10.1370   -1.5700  -10.7580 C   0  0  0  0  0  0  0  0  0  0  0  0
  -11.5330   -1.5200  -10.5780 C   0  0  0  0  0  0  0  0  0  0  0  0
  -12.1170   -1.7920   -9.3370 C   0  0  0  0  0  0  0  0  0  0  0  0
  -13.4840   -1.6970   -9.3500 O   0  0  0  0  0  0  0  0  0  0  0  0
  -14.2020   -2.8480   -9.7800 C   0  0  0  0  0  0  0  0  0  0  0  0
  -12.1539   -4.0219   -5.7068 H   0  0  0  0  0  0  0  0  0  0  0  0
  -13.0891   -4.1868   -7.2315 H   0  0  0  0  0  0  0  0  0  0  0  0
  -11.3148   -4.4664   -7.2315 H   0  0  0  0  0  0  0  0  0  0  0  0
   -9.2703   -2.4794   -7.5999 H   0  0  0  0  0  0  0  0  0  0  0  0
   -6.3098   -1.7879  -11.0425 H   0  0  0  0  0  0  0  0  0  0  0  0
   -7.6057   -1.1773  -13.0512 H   0  0  0  0  0  0  0  0  0  0  0  0
  -10.6495    1.4709  -12.3452 H   0  0  0  0  0  0  0  0  0  0  0  0
   -9.9445    3.5208  -13.5736 H   0  0  0  0  0  0  0  0  0  0  0  0
   -7.6000    3.7030  -15.9360 H   0  0  0  0  0  0  0  0  0  0  0  0
   -7.5830    5.4620  -17.0520 H   0  0  0  0  0  0  0  0  0  0  0  0
   -9.0766    5.5622  -20.1970 H   0  0  0  0  0  0  0  0  0  0  0  0
  -10.6051    9.2821  -20.7669 H   0  0  0  0  0  0  0  0  0  0  0  0
   -9.1691    8.6149  -21.6151 H   0  0  0  0  0  0  0  0  0  0  0  0
  -10.7165    7.7026  -21.6151 H   0  0  0  0  0  0  0  0  0  0  0  0
   -8.9183   -1.0042  -15.4344 H   0  0  0  0  0  0  0  0  0  0  0  0
  -12.1772   -1.2616  -11.4314 H   0  0  0  0  0  0  0  0  0  0  0  0
  -14.5528   -3.4104   -8.9022 H   0  0  0  0  0  0  0  0  0  0  0  0
  -15.0661   -2.5363  -10.3851 H   0  0  0  0  0  0  0  0  0  0  0  0
  -13.5420   -3.4870  -10.3851 H   0  0  0  0  0  0  0  0  0  0  0  0
  1  2  1  0
  2  3  1  0
  3  4  1  0
  4  5  2  0
  5  6  1  0
  6  7  2  0
  7  8  1  0
  8  9  2  0
  9 10  1  0
 10 11  1  0
 11 12  1  0
 12 13  2  0
 13 14  1  0
 14 15  1  0
 15 16  1  0
 16 17  2  0
 16 18  1  0
 18 19  1  0
 19 20  1  0
 20 21  2  0
 21 22  1  0
 21 23  1  0
 23 24  1  0
 14 25  2  0
 25 26  1  0
 25 27  1  0
  9 28  1  0
 28 29  2  0
 29 30  1  0
 30 31  1  0
 31 32  1  0
 30  3  2  0
 28  5  1  0
 27 11  2  0
 24 19  2  0
  1 33  1  0
  1 34  1  0
  1 35  1  0
  4 36  1  0
  7 37  1  0
  8 38  1  0
 12 39  1  0
 13 40  1  0
 15 41  1  0
 18 42  1  0
 20 43  1  0
 22 44  1  0
 22 45  1  0
 22 46  1  0
 27 47  1  0
 29 48  1  0
 32 49  1  0
 32 50  1  0
 32 51  1  0
M  END
>  <meeko>  (10) 
{"is_sidechain": false}

>  <vina_affinity_kcal_mol>  (10) 
-7.558

>  <pose_rank>  (10) 
10

$$$$
