
     RDKit          3D

 46 49  0  0  0  0  0  0  0  0999 V2000
  -13.1150   -4.9410  -10.6980 C   0  0  0  0  0  0  0  0  0  0  0  0
  -12.3960   -4.0440   -9.8300 N   0  0  0  0  0  0  0  0  0  0  0  0
  -11.4960   -3.1310  -10.3320 C   0  0  0  0  0  0  0  0  0  0  0  0
  -11.1590   -3.0900  -11.5110 O   0  0  0  0  0  0  0  0  0  0  0  0
  -10.8890   -2.1850   -9.3590 C   0  0  0  0  0  0  0  0  0  0  0  0
   -9.5660   -2.4690   -8.9750 C   0  0  0  0  0  0  0  0  0  0  0  0
   -8.9010   -1.6580   -8.0560 C   0  0  0  0  0  0  0  0  0  0  0  0
   -9.5470   -0.5510   -7.5170 C   0  0  0  0  0  0  0  0  0  0  0  0
  -10.8540   -0.2480   -7.9060 C   0  0  0  0  0  0  0  0  0  0  0  0
  -11.5380   -1.0500   -8.8360 C   0  0  0  0  0  0  0  0  0  0  0  0
  -13.1880   -0.5190   -9.3000 S   0  0  0  0  0  0  0  0  0  0  0  0
  -12.7920    0.5740  -10.6600 C   0  0  0  0  0  0  0  0  0  0  0  0
  -11.5450    0.5010  -11.2850 C   0  0  0  0  0  0  0  0  0  0  0  0
  -11.2220    1.3530  -12.3510 C   0  0  0  0  0  0  0  0  0  0  0  0
  -12.1710    2.2950  -12.7970 C   0  0  0  0  0  0  0  0  0  0  0  0
  -12.2440    3.3090  -13.8050 C   0  0  0  0  0  0  0  0  0  0  0  0
  -11.2170    3.7020  -14.7240 C   0  0  0  0  0  0  0  0  0  0  0  0
  -11.2130    4.8100  -15.4860 C   0  0  0  0  0  0  0  0  0  0  0  0
  -10.1390    5.1570  -16.4250 C   0  0  0  0  0  0  0  0  0  0  0  0
  -10.0170    6.4630  -16.8930 C   0  0  0  0  0  0  0  0  0  0  0  0
   -8.9860    6.7690  -17.7790 C   0  0  0  0  0  0  0  0  0  0  0  0
   -8.1070    5.7680  -18.1710 C   0  0  0  0  0  0  0  0  0  0  0  0
   -8.2970    4.4970  -17.6570 C   0  0  0  0  0  0  0  0  0  0  0  0
   -9.2870    4.1730  -16.7970 N   0  0  0  0  0  0  0  0  0  0  0  0
  -13.4560    3.8820  -13.8280 N   0  0  0  0  0  0  0  0  0  0  0  0
  -14.1250    3.2840  -12.8330 N   0  0  0  0  0  0  0  0  0  0  0  0
  -13.4140    2.3220  -12.1730 C   0  0  0  0  0  0  0  0  0  0  0  0
  -13.7610    1.4830  -11.1060 C   0  0  0  0  0  0  0  0  0  0  0  0
  -13.6889   -5.6569  -10.0913 H   0  0  0  0  0  0  0  0  0  0  0  0
  -13.8034   -4.3638  -11.3328 H   0  0  0  0  0  0  0  0  0  0  0  0
  -12.4018   -5.4873  -11.3328 H   0  0  0  0  0  0  0  0  0  0  0  0
  -12.7330   -3.9190   -8.8820 H   0  0  0  0  0  0  0  0  0  0  0  0
   -9.0502   -3.3405   -9.4044 H   0  0  0  0  0  0  0  0  0  0  0  0
   -7.8685   -1.8933   -7.7584 H   0  0  0  0  0  0  0  0  0  0  0  0
   -9.0292    0.0858   -6.7847 H   0  0  0  0  0  0  0  0  0  0  0  0
  -11.3559    0.6322   -7.4778 H   0  0  0  0  0  0  0  0  0  0  0  0
  -10.8059   -0.2352  -10.9361 H   0  0  0  0  0  0  0  0  0  0  0  0
  -10.2364    1.2867  -12.8350 H   0  0  0  0  0  0  0  0  0  0  0  0
  -10.3485    3.0330  -14.8148 H   0  0  0  0  0  0  0  0  0  0  0  0
  -12.0666    5.4985  -15.4006 H   0  0  0  0  0  0  0  0  0  0  0  0
  -10.7236    7.2410  -16.5682 H   0  0  0  0  0  0  0  0  0  0  0  0
   -8.8696    7.7929  -18.1639 H   0  0  0  0  0  0  0  0  0  0  0  0
   -7.2839    5.9790  -18.8695 H   0  0  0  0  0  0  0  0  0  0  0  0
   -7.6007    3.7039  -17.9671 H   0  0  0  0  0  0  0  0  0  0  0  0
  -15.0790    3.5760  -12.6580 H   0  0  0  0  0  0  0  0  0  0  0  0
  -14.7546    1.5356  -10.6369 H   0  0  0  0  0  0  0  0  0  0  0  0
  1  2  1  0
  2  3  1  0
  3  4  2  0
  3  5  1  0
  5  6  2  0
  6  7  1  0
  7  8  2  0
  8  9  1  0
  9 10  2  0
 10 11  1  0
 11 12  1  0
 12 13  2  0
 13 14  1  0
 14 15  2  0
 15 16  1  0
 16 17  1  0
 17 18  2  0
 18 19  1  0
 19 20  2  0
 20 21  1  0
 21 22  2  0
 22 23  1  0
 23 24  2  0
 16 25  2  0
 25 26  1  0
 26 27  1  0
 27 28  2  0
 10  5  1  0
 28 12  1  0
 27 15  1  0
 24 19  1  0
  1 29  1  0
  1 30  1  0
  1 31  1  0
  2 32  1  0
  6 33  1  0
  7 34  1  0
  8 35  1  0
  9 36  1  0
 13 37  1  0
 14 38  1  0
 17 39  1  0
 18 40  1  0
 20 41  1  0
 21 42  1  0
 22 43  1  0
 23 44  1  0
 26 45  1  0
 28 46  1  0
M  END
>  <meeko>  (1) 
{"is_sidechain": false}

>  <vina_affinity_kcal_mol>  (1) 
-8.757

>  <pose_rank>  (1) 
1

$$$$

     RDKit          3D

 46 49  0  0  0  0  0  0  0  0999 V2000
  -16.4930   -0.5710   -6.7080 C   0  0  0  0  0  0  0  0  0  0  0  0
  -15.0540   -0.5900   -6.7500 N   0  0  0  0  0  0  0  0  0  0  0  0
  -14.3420    0.4350   -7.3300 C   0  0  0  0  0  0  0  0  0  0  0  0
  -14.8640    1.3610   -7.9430 O   0  0  0  0  0  0  0  0  0  0  0  0
  -12.8600    0.3640   -7.2240 C   0  0  0  0  0  0  0  0  0  0  0  0
  -12.3000    0.9640   -6.0810 C   0  0  0  0  0  0  0  0  0  0  0  0
  -10.9200    0.9710   -5.8840 C   0  0  0  0  0  0  0  0  0  0  0  0
  -10.0850    0.3730   -6.8210 C   0  0  0  0  0  0  0  0  0  0  0  0
  -10.6310   -0.2420   -7.9500 C   0  0  0  0  0  0  0  0  0  0  0  0
  -12.0200   -0.2660   -8.1620 C   0  0  0  0  0  0  0  0  0  0  0  0
  -12.6000   -1.1420   -9.6170 S   0  0  0  0  0  0  0  0  0  0  0  0
  -12.3420    0.1170  -10.8600 C   0  0  0  0  0  0  0  0  0  0  0  0
  -11.1710    0.1310  -11.6210 C   0  0  0  0  0  0  0  0  0  0  0  0
  -10.9560    1.1140  -12.5980 C   0  0  0  0  0  0  0  0  0  0  0  0
  -11.9390    2.1010  -12.8150 C   0  0  0  0  0  0  0  0  0  0  0  0
  -12.1110    3.2350  -13.6720 C   0  0  0  0  0  0  0  0  0  0  0  0
  -11.1850    3.7460  -14.6390 C   0  0  0  0  0  0  0  0  0  0  0  0
  -11.3420    4.8590  -15.3780 C   0  0  0  0  0  0  0  0  0  0  0  0
  -10.3650    5.3310  -16.3690 C   0  0  0  0  0  0  0  0  0  0  0  0
  -10.2160    6.6950  -16.6050 C   0  0  0  0  0  0  0  0  0  0  0  0
   -9.2790    7.1180  -17.5450 C   0  0  0  0  0  0  0  0  0  0  0  0
   -8.5180    6.1730  -18.2200 C   0  0  0  0  0  0  0  0  0  0  0  0
   -8.7270    4.8370  -17.9230 C   0  0  0  0  0  0  0  0  0  0  0  0
   -9.6280    4.3990  -17.0170 N   0  0  0  0  0  0  0  0  0  0  0  0
  -13.3130    3.8000  -13.4910 N   0  0  0  0  0  0  0  0  0  0  0  0
  -13.8760    3.0770  -12.5140 N   0  0  0  0  0  0  0  0  0  0  0  0
  -13.1070    2.0410  -12.0630 C   0  0  0  0  0  0  0  0  0  0  0  0
  -13.3450    1.0720  -11.0800 C   0  0  0  0  0  0  0  0  0  0  0  0
  -16.8292   -0.5666   -5.6607 H   0  0  0  0  0  0  0  0  0  0  0  0
  -16.8627    0.3321   -7.2156 H   0  0  0  0  0  0  0  0  0  0  0  0
  -16.8865   -1.4640   -7.2156 H   0  0  0  0  0  0  0  0  0  0  0  0
  -14.5640   -1.2330   -6.1380 H   0  0  0  0  0  0  0  0  0  0  0  0
  -12.9584    1.4326   -5.3348 H   0  0  0  0  0  0  0  0  0  0  0  0
  -10.4929    1.4483   -4.9897 H   0  0  0  0  0  0  0  0  0  0  0  0
   -8.9950    0.3842   -6.6733 H   0  0  0  0  0  0  0  0  0  0  0  0
   -9.9631   -0.7151   -8.6849 H   0  0  0  0  0  0  0  0  0  0  0  0
  -10.4057   -0.6407  -11.4515 H   0  0  0  0  0  0  0  0  0  0  0  0
  -10.0287    1.1149  -13.1897 H   0  0  0  0  0  0  0  0  0  0  0  0
  -10.2579    3.1739  -14.7914 H   0  0  0  0  0  0  0  0  0  0  0  0
  -12.2571    5.4517  -15.2316 H   0  0  0  0  0  0  0  0  0  0  0  0
  -10.8284    7.4269  -16.0579 H   0  0  0  0  0  0  0  0  0  0  0  0
   -9.1433    8.1901  -17.7505 H   0  0  0  0  0  0  0  0  0  0  0  0
   -7.7713    6.4767  -18.9684 H   0  0  0  0  0  0  0  0  0  0  0  0
   -8.1235    4.0878  -18.4565 H   0  0  0  0  0  0  0  0  0  0  0  0
  -14.8040    3.3390  -12.2020 H   0  0  0  0  0  0  0  0  0  0  0  0
  -14.2817    1.0606  -10.5034 H   0  0  0  0  0  0  0  0  0  0  0  0
  1  2  1  0
  2  3  1  0
  3  4  2  0
  3  5  1  0
  5  6  2  0
  6  7  1  0
  7  8  2  0
  8  9  1  0
  9 10  2  0
 10 11  1  0
 11 12  1  0
 12 13  2  0
 13 14  1  0
 14 15  2  0
 15 16  1  0
 16 17  1  0
 17 18  2  0
 18 19  1  0
 19 20  2  0
 20 21  1  0
 21 22  2  0
 22 23  1  0
 23 24  2  0
 16 25  2  0
 25 26  1  0
 26 27  1  0
 27 28  2  0
 10  5  1  0
 28 12  1  0
 27 15  1  0
 24 19  1  0
  1 29  1  0
  1 30  1  0
  1 31  1  0
  2 32  1  0
  6 33  1  0
  7 34  1  0
  8 35  1  0
  9 36  1  0
 13 37  1  0
 14 38  1  0
 17 39  1  0
 18 40  1  0
 20 41  1  0
 21 42  1  0
 22 43  1  0
 23 44  1  0
 26 45  1  0
 28 46  1  0
M  END
>  <meeko>  (2) 
{"is_sidechain": false}

>  <vina_affinity_kcal_mol>  (2) 
-8.733

>  <pose_rank>  (2) 
2

$$$$

     RDKit          3D

 46 49  0  0  0  0  0  0  0  0999 V2000
   -9.2160   -0.0160   -7.0440 C   0  0  0  0  0  0  0  0  0  0  0  0
   -9.9540   -0.8510   -7.9550 N   0  0  0  0  0  0  0  0  0  0  0  0
  -10.9830   -1.6540   -7.5150 C   0  0  0  0  0  0  0  0  0  0  0  0
  -11.2650   -1.8050   -6.3310 O   0  0  0  0  0  0  0  0  0  0  0  0
  -11.7450   -2.3950   -8.5560 C   0  0  0  0  0  0  0  0  0  0  0  0
  -11.2740   -3.6870   -8.8530 C   0  0  0  0  0  0  0  0  0  0  0  0
  -11.9010   -4.4680   -9.8220 C   0  0  0  0  0  0  0  0  0  0  0  0
  -13.0100   -3.9710  -10.4990 C   0  0  0  0  0  0  0  0  0  0  0  0
  -13.4980   -2.6970  -10.1980 C   0  0  0  0  0  0  0  0  0  0  0  0
  -12.8830   -1.8980   -9.2190 C   0  0  0  0  0  0  0  0  0  0  0  0
  -13.6430   -0.3090   -8.8800 S   0  0  0  0  0  0  0  0  0  0  0  0
  -13.0940    0.6090  -10.3140 C   0  0  0  0  0  0  0  0  0  0  0  0
  -11.8020    0.4350  -10.8130 C   0  0  0  0  0  0  0  0  0  0  0  0
  -11.3580    1.1500  -11.9350 C   0  0  0  0  0  0  0  0  0  0  0  0
  -12.2330    2.0580  -12.5670 C   0  0  0  0  0  0  0  0  0  0  0  0
  -12.1830    2.9500  -13.6850 C   0  0  0  0  0  0  0  0  0  0  0  0
  -11.0680    3.2090  -14.5470 C   0  0  0  0  0  0  0  0  0  0  0  0
  -10.8960    4.2950  -15.3200 C   0  0  0  0  0  0  0  0  0  0  0  0
   -9.7370    4.5030  -16.1990 C   0  0  0  0  0  0  0  0  0  0  0  0
   -9.6270    5.6770  -16.9400 C   0  0  0  0  0  0  0  0  0  0  0  0
   -8.5160    5.8530  -17.7620 C   0  0  0  0  0  0  0  0  0  0  0  0
   -7.5480    4.8600  -17.8200 C   0  0  0  0  0  0  0  0  0  0  0  0
   -7.7340    3.7250  -17.0490 C   0  0  0  0  0  0  0  0  0  0  0  0
   -8.8000    3.5280  -16.2440 N   0  0  0  0  0  0  0  0  0  0  0  0
  -13.3680    3.5450  -13.8820 N   0  0  0  0  0  0  0  0  0  0  0  0
  -14.1410    3.0820  -12.8900 N   0  0  0  0  0  0  0  0  0  0  0  0
  -13.5230    2.1860  -12.0640 C   0  0  0  0  0  0  0  0  0  0  0  0
  -13.9890    1.4850  -10.9450 C   0  0  0  0  0  0  0  0  0  0  0  0
   -9.4627   -0.2951   -6.0090 H   0  0  0  0  0  0  0  0  0  0  0  0
   -8.1377   -0.1522   -7.2134 H   0  0  0  0  0  0  0  0  0  0  0  0
   -9.4836    1.0374   -7.2134 H   0  0  0  0  0  0  0  0  0  0  0  0
   -9.8790   -0.6630   -8.9480 H   0  0  0  0  0  0  0  0  0  0  0  0
  -10.4013   -4.0850   -8.3145 H   0  0  0  0  0  0  0  0  0  0  0  0
  -11.5202   -5.4743  -10.0508 H   0  0  0  0  0  0  0  0  0  0  0  0
  -13.5024   -4.5807  -11.2709 H   0  0  0  0  0  0  0  0  0  0  0  0
  -14.3775   -2.3132  -10.7358 H   0  0  0  0  0  0  0  0  0  0  0  0
  -11.1215   -0.2739  -10.3186 H   0  0  0  0  0  0  0  0  0  0  0  0
  -10.3373    1.0041  -12.3183 H   0  0  0  0  0  0  0  0  0  0  0  0
  -10.2767    2.4456  -14.5792 H   0  0  0  0  0  0  0  0  0  0  0  0
  -11.6703    5.0759  -15.2930 H   0  0  0  0  0  0  0  0  0  0  0  0
  -10.4045    6.4526  -16.8773 H   0  0  0  0  0  0  0  0  0  0  0  0
   -8.4070    6.7702  -18.3594 H   0  0  0  0  0  0  0  0  0  0  0  0
   -6.6598    4.9713  -18.4593 H   0  0  0  0  0  0  0  0  0  0  0  0
   -6.9678    2.9370  -17.0950 H   0  0  0  0  0  0  0  0  0  0  0  0
  -15.0960    3.4150  -12.8350 H   0  0  0  0  0  0  0  0  0  0  0  0
  -15.0167    1.6163  -10.5754 H   0  0  0  0  0  0  0  0  0  0  0  0
  1  2  1  0
  2  3  1  0
  3  4  2  0
  3  5  1  0
  5  6  2  0
  6  7  1  0
  7  8  2  0
  8  9  1  0
  9 10  2  0
 10 11  1  0
 11 12  1  0
 12 13  2  0
 13 14  1  0
 14 15  2  0
 15 16  1  0
 16 17  1  0
 17 18  2  0
 18 19  1  0
 19 20  2  0
 20 21  1  0
 21 22  2  0
 22 23  1  0
 23 24  2  0
 16 25  2  0
 25 26  1  0
 26 27  1  0
 27 28  2  0
 10  5  1  0
 28 12  1  0
 27 15  1  0
 24 19  1  0
  1 29  1  0
  1 30  1  0
  1 31  1  0
  2 32  1  0
  6 33  1  0
  7 34  1  0
  8 35  1  0
  9 36  1  0
 13 37  1  0
 14 38  1  0
 17 39  1  0
 18 40  1  0
 20 41  1  0
 21 42  1  0
 22 43  1  0
 23 44  1  0
 26 45  1  0
 28 46  1  0
M  END
>  <meeko>  (3) 
{"is_sidechain": false}

>  <vina_affinity_kcal_mol>  (3) 
-8.691

>  <pose_rank>  (3) 
3

$$$$

     RDKit          3D

 46 49  0  0  0  0  0  0  0  0999 V2000
  -17.1380   -2.1730   -7.6240 C   0  0  0  0  0  0  0  0  0  0  0  0
  -16.0450   -2.2480   -8.5570 N   0  0  0  0  0  0  0  0  0  0  0  0
  -14.8410   -2.8150   -8.2050 C   0  0  0  0  0  0  0  0  0  0  0  0
  -14.5730   -3.1840   -7.0660 O   0  0  0  0  0  0  0  0  0  0  0  0
  -13.8170   -2.9350   -9.2780 C   0  0  0  0  0  0  0  0  0  0  0  0
  -13.7790   -4.1700   -9.9500 C   0  0  0  0  0  0  0  0  0  0  0  0
  -12.8510   -4.4010  -10.9640 C   0  0  0  0  0  0  0  0  0  0  0  0
  -11.9560   -3.3990  -11.3230 C   0  0  0  0  0  0  0  0  0  0  0  0
  -11.9980   -2.1620  -10.6750 C   0  0  0  0  0  0  0  0  0  0  0  0
  -12.9320   -1.9080   -9.6560 C   0  0  0  0  0  0  0  0  0  0  0  0
  -12.9250   -0.2600   -8.9470 S   0  0  0  0  0  0  0  0  0  0  0  0
  -12.6210    0.7100  -10.4190 C   0  0  0  0  0  0  0  0  0  0  0  0
  -11.3710    0.6810  -11.0390 C   0  0  0  0  0  0  0  0  0  0  0  0
  -11.1190    1.4380  -12.1930 C   0  0  0  0  0  0  0  0  0  0  0  0
  -12.1460    2.2390  -12.7330 C   0  0  0  0  0  0  0  0  0  0  0  0
  -12.3040    3.1270  -13.8440 C   0  0  0  0  0  0  0  0  0  0  0  0
  -11.3130    3.5070  -14.8060 C   0  0  0  0  0  0  0  0  0  0  0  0
  -11.1650    4.7250  -15.3570 C   0  0  0  0  0  0  0  0  0  0  0  0
  -10.1370    5.0570  -16.3520 C   0  0  0  0  0  0  0  0  0  0  0  0
   -9.9870    6.3710  -16.7880 C   0  0  0  0  0  0  0  0  0  0  0  0
   -9.0010    6.6620  -17.7280 C   0  0  0  0  0  0  0  0  0  0  0  0
   -8.1930    5.6390  -18.2050 C   0  0  0  0  0  0  0  0  0  0  0  0
   -8.4070    4.3610  -17.7180 C   0  0  0  0  0  0  0  0  0  0  0  0
   -9.3540    4.0510  -16.8070 N   0  0  0  0  0  0  0  0  0  0  0  0
  -13.5620    3.5840  -13.9230 N   0  0  0  0  0  0  0  0  0  0  0  0
  -14.1800    3.0400  -12.8650 N   0  0  0  0  0  0  0  0  0  0  0  0
  -13.3890    2.2220  -12.1090 C   0  0  0  0  0  0  0  0  0  0  0  0
  -13.6650    1.4760  -10.9560 C   0  0  0  0  0  0  0  0  0  0  0  0
  -16.7457   -2.1999   -6.5967 H   0  0  0  0  0  0  0  0  0  0  0  0
  -17.6904   -1.2348   -7.7811 H   0  0  0  0  0  0  0  0  0  0  0  0
  -17.8134   -3.0269   -7.7811 H   0  0  0  0  0  0  0  0  0  0  0  0
  -16.2430   -2.1080   -9.5420 H   0  0  0  0  0  0  0  0  0  0  0  0
  -14.4896   -4.9624   -9.6722 H   0  0  0  0  0  0  0  0  0  0  0  0
  -12.8266   -5.3729  -11.4787 H   0  0  0  0  0  0  0  0  0  0  0  0
  -11.2158   -3.5802  -12.1163 H   0  0  0  0  0  0  0  0  0  0  0  0
  -11.2884   -1.3739  -10.9671 H   0  0  0  0  0  0  0  0  0  0  0  0
  -10.5712    0.0551  -10.6164 H   0  0  0  0  0  0  0  0  0  0  0  0
  -10.1293    1.4069  -12.6721 H   0  0  0  0  0  0  0  0  0  0  0  0
  -10.6050    2.7278  -15.1247 H   0  0  0  0  0  0  0  0  0  0  0  0
  -11.8562    5.5211  -15.0432 H   0  0  0  0  0  0  0  0  0  0  0  0
  -10.6372    7.1670  -16.3961 H   0  0  0  0  0  0  0  0  0  0  0  0
   -8.8641    7.6921  -18.0887 H   0  0  0  0  0  0  0  0  0  0  0  0
   -7.4063    5.8379  -18.9477 H   0  0  0  0  0  0  0  0  0  0  0  0
   -7.7674    3.5497  -18.0957 H   0  0  0  0  0  0  0  0  0  0  0  0
  -15.1570    3.2640  -12.7180 H   0  0  0  0  0  0  0  0  0  0  0  0
  -14.6615    1.4907  -10.4904 H   0  0  0  0  0  0  0  0  0  0  0  0
  1  2  1  0
  2  3  1  0
  3  4  2  0
  3  5  1  0
  5  6  2  0
  6  7  1  0
  7  8  2  0
  8  9  1  0
  9 10  2  0
 10 11  1  0
 11 12  1  0
 12 13  2  0
 13 14  1  0
 14 15  2  0
 15 16  1  0
 16 17  1  0
 17 18  2  0
 18 19  1  0
 19 20  2  0
 20 21  1  0
 21 22  2  0
 22 23  1  0
 23 24  2  0
 16 25  2  0
 25 26  1  0
 26 27  1  0
 27 28  2  0
 10  5  1  0
 28 12  1  0
 27 15  1  0
 24 19  1  0
  1 29  1  0
  1 30  1  0
  1 31  1  0
  2 32  1  0
  6 33  1  0
  7 34  1  0
  8 35  1  0
  9 36  1  0
 13 37  1  0
 14 38  1  0
 17 39  1  0
 18 40  1  0
 20 41  1  0
 21 42  1  0
 22 43  1  0
 23 44  1  0
 26 45  1  0
 28 46  1  0
M  END
>  <meeko>  (4) 
{"is_sidechain": false}

>  <vina_affinity_kcal_mol>  (4) 
-8.596

>  <pose_rank>  (4) 
4

$$$$

     RDKit          3D

 46 49  0  0  0  0  0  0  0  0999 V2000
  -10.1550    7.7290  -20.4040 C   0  0  0  0  0  0  0  0  0  0  0  0
  -10.1560    6.6940  -19.4020 N   0  0  0  0  0  0  0  0  0  0  0  0
   -9.8400    6.9680  -18.0910 C   0  0  0  0  0  0  0  0  0  0  0  0
   -9.4300    8.0580  -17.7060 O   0  0  0  0  0  0  0  0  0  0  0  0
   -9.9750    5.8470  -17.1220 C   0  0  0  0  0  0  0  0  0  0  0  0
  -11.1800    5.8080  -16.3980 C   0  0  0  0  0  0  0  0  0  0  0  0
  -11.4100    4.8100  -15.4520 C   0  0  0  0  0  0  0  0  0  0  0  0
  -10.4430    3.8370  -15.2240 C   0  0  0  0  0  0  0  0  0  0  0  0
   -9.2510    3.8550  -15.9510 C   0  0  0  0  0  0  0  0  0  0  0  0
   -9.0040    4.8490  -16.9140 C   0  0  0  0  0  0  0  0  0  0  0  0
   -7.4630    4.7250  -17.8250 S   0  0  0  0  0  0  0  0  0  0  0  0
   -6.9010    3.1210  -17.2670 C   0  0  0  0  0  0  0  0  0  0  0  0
   -7.1220    1.9840  -18.0470 C   0  0  0  0  0  0  0  0  0  0  0  0
   -6.6880    0.7200  -17.6210 C   0  0  0  0  0  0  0  0  0  0  0  0
   -6.0180    0.5980  -16.3860 C   0  0  0  0  0  0  0  0  0  0  0  0
   -5.4380   -0.4560  -15.6110 C   0  0  0  0  0  0  0  0  0  0  0  0
   -5.4150   -1.8550  -15.9190 C   0  0  0  0  0  0  0  0  0  0  0  0
   -5.2760   -2.8610  -15.0370 C   0  0  0  0  0  0  0  0  0  0  0  0
   -5.2440   -4.2820  -15.4110 C   0  0  0  0  0  0  0  0  0  0  0  0
   -4.0760   -4.8420  -15.9200 C   0  0  0  0  0  0  0  0  0  0  0  0
   -4.0690   -6.1930  -16.2610 C   0  0  0  0  0  0  0  0  0  0  0  0
   -5.2220   -6.9450  -16.0840 C   0  0  0  0  0  0  0  0  0  0  0  0
   -6.3400   -6.3110  -15.5690 C   0  0  0  0  0  0  0  0  0  0  0  0
   -6.3740   -5.0040  -15.2300 N   0  0  0  0  0  0  0  0  0  0  0  0
   -4.8540    0.0230  -14.5030 N   0  0  0  0  0  0  0  0  0  0  0  0
   -5.0940    1.3400  -14.5450 N   0  0  0  0  0  0  0  0  0  0  0  0
   -5.7870    1.7540  -15.6470 C   0  0  0  0  0  0  0  0  0  0  0  0
   -6.2120    3.0260  -16.0500 C   0  0  0  0  0  0  0  0  0  0  0  0
  -10.1540    8.7138  -19.9139 H   0  0  0  0  0  0  0  0  0  0  0  0
   -9.2569    7.6309  -21.0316 H   0  0  0  0  0  0  0  0  0  0  0  0
  -11.0532    7.6326  -21.0316 H   0  0  0  0  0  0  0  0  0  0  0  0
  -10.6260    5.8210  -19.6140 H   0  0  0  0  0  0  0  0  0  0  0  0
  -11.9492    6.5730  -16.5800 H   0  0  0  0  0  0  0  0  0  0  0  0
  -12.3539    4.7923  -14.8875 H   0  0  0  0  0  0  0  0  0  0  0  0
  -10.6170    3.0538  -14.4715 H   0  0  0  0  0  0  0  0  0  0  0  0
   -8.4932    3.0791  -15.7673 H   0  0  0  0  0  0  0  0  0  0  0  0
   -7.6444    2.0811  -19.0102 H   0  0  0  0  0  0  0  0  0  0  0  0
   -6.8686   -0.1680  -18.2445 H   0  0  0  0  0  0  0  0  0  0  0  0
   -5.5212   -2.1330  -16.9780 H   0  0  0  0  0  0  0  0  0  0  0  0
   -5.1805   -2.6047  -13.9715 H   0  0  0  0  0  0  0  0  0  0  0  0
   -3.1728   -4.2279  -16.0510 H   0  0  0  0  0  0  0  0  0  0  0  0
   -3.1587   -6.6589  -16.6664 H   0  0  0  0  0  0  0  0  0  0  0  0
   -5.2469   -8.0133  -16.3452 H   0  0  0  0  0  0  0  0  0  0  0  0
   -7.2540   -6.9066  -15.4277 H   0  0  0  0  0  0  0  0  0  0  0  0
   -4.7460    1.9120  -13.7840 H   0  0  0  0  0  0  0  0  0  0  0  0
   -6.0128    3.9162  -15.4353 H   0  0  0  0  0  0  0  0  0  0  0  0
  1  2  1  0
  2  3  1  0
  3  4  2  0
  3  5  1  0
  5  6  2  0
  6  7  1  0
  7  8  2  0
  8  9  1  0
  9 10  2  0
 10 11  1  0
 11 12  1  0
 12 13  2  0
 13 14  1  0
 14 15  2  0
 15 16  1  0
 16 17  1  0
 17 18  2  0
 18 19  1  0
 19 20  2  0
 20 21  1  0
 21 22  2  0
 22 23  1  0
 23 24  2  0
 16 25  2  0
 25 26  1  0
 26 27  1  0
 27 28  2  0
 10  5  1  0
 28 12  1  0
 27 15  1  0
 24 19  1  0
  1 29  1  0
  1 30  1  0
  1 31  1  0
  2 32  1  0
  6 33  1  0
  7 34  1  0
  8 35  1  0
  9 36  1  0
 13 37  1  0
 14 38  1  0
 17 39  1  0
 18 40  1  0
 20 41  1  0
 21 42  1  0
 22 43  1  0
 23 44  1  0
 26 45  1  0
 28 46  1  0
M  END
>  <meeko>  (5) 
{"is_sidechain": false}

>  <vina_affinity_kcal_mol>  (5) 
-8.341

>  <pose_rank>  (5) 
5

$$$$

     RDKit          3D

 46 49  0  0  0  0  0  0  0  0999 V2000
  -13.4830   -4.7070  -10.5510 C   0  0  0  0  0  0  0  0  0  0  0  0
  -12.9060   -3.6970   -9.7030 N   0  0  0  0  0  0  0  0  0  0  0  0
  -12.0670   -2.7310  -10.2110 C   0  0  0  0  0  0  0  0  0  0  0  0
  -11.6630   -2.7250  -11.3690 O   0  0  0  0  0  0  0  0  0  0  0  0
  -11.6120   -1.6750   -9.2660 C   0  0  0  0  0  0  0  0  0  0  0  0
  -10.4900   -2.0000   -8.4830 C   0  0  0  0  0  0  0  0  0  0  0  0
   -9.9850   -1.0930   -7.5530 C   0  0  0  0  0  0  0  0  0  0  0  0
  -10.5890    0.1500   -7.4000 C   0  0  0  0  0  0  0  0  0  0  0  0
  -11.6920    0.4900   -8.1870 C   0  0  0  0  0  0  0  0  0  0  0  0
  -12.2110   -0.4080   -9.1350 C   0  0  0  0  0  0  0  0  0  0  0  0
  -13.5900    0.1720  -10.1260 S   0  0  0  0  0  0  0  0  0  0  0  0
  -12.7090    1.1280  -11.3550 C   0  0  0  0  0  0  0  0  0  0  0  0
  -13.3240    2.2150  -11.9800 C   0  0  0  0  0  0  0  0  0  0  0  0
  -12.6450    2.9710  -12.9470 C   0  0  0  0  0  0  0  0  0  0  0  0
  -11.3210    2.6280  -13.2900 C   0  0  0  0  0  0  0  0  0  0  0  0
  -10.3140    3.1110  -14.1860 C   0  0  0  0  0  0  0  0  0  0  0  0
  -10.4200    4.1980  -15.1130 C   0  0  0  0  0  0  0  0  0  0  0  0
   -9.7580    4.3160  -16.2780 C   0  0  0  0  0  0  0  0  0  0  0  0
   -9.8940    5.4620  -17.1870 C   0  0  0  0  0  0  0  0  0  0  0  0
  -10.6810    5.3550  -18.3310 C   0  0  0  0  0  0  0  0  0  0  0  0
  -10.7980    6.4580  -19.1740 C   0  0  0  0  0  0  0  0  0  0  0  0
  -10.1320    7.6330  -18.8530 C   0  0  0  0  0  0  0  0  0  0  0  0
   -9.3730    7.6560  -17.6960 C   0  0  0  0  0  0  0  0  0  0  0  0
   -9.2420    6.6030  -16.8610 N   0  0  0  0  0  0  0  0  0  0  0  0
   -9.1740    2.4200  -14.0490 N   0  0  0  0  0  0  0  0  0  0  0  0
   -9.4560    1.4910  -13.1260 N   0  0  0  0  0  0  0  0  0  0  0  0
  -10.7270    1.5580  -12.6270 C   0  0  0  0  0  0  0  0  0  0  0  0
  -11.3840    0.7870  -11.6610 C   0  0  0  0  0  0  0  0  0  0  0  0
  -13.9330   -5.4947   -9.9290 H   0  0  0  0  0  0  0  0  0  0  0  0
  -14.2583   -4.2535  -11.1860 H   0  0  0  0  0  0  0  0  0  0  0  0
  -12.6986   -5.1445  -11.1860 H   0  0  0  0  0  0  0  0  0  0  0  0
  -13.3110   -3.5510   -8.7850 H   0  0  0  0  0  0  0  0  0  0  0  0
  -10.0060   -2.9801   -8.6058 H   0  0  0  0  0  0  0  0  0  0  0  0
   -9.1105   -1.3599   -6.9414 H   0  0  0  0  0  0  0  0  0  0  0  0
  -10.1989    0.8646   -6.6603 H   0  0  0  0  0  0  0  0  0  0  0  0
  -12.1619    1.4768   -8.0625 H   0  0  0  0  0  0  0  0  0  0  0  0
  -14.3563    2.4823  -11.7099 H   0  0  0  0  0  0  0  0  0  0  0  0
  -13.1410    3.8239  -13.4334 H   0  0  0  0  0  0  0  0  0  0  0  0
  -11.1082    5.0138  -14.8468 H   0  0  0  0  0  0  0  0  0  0  0  0
   -9.0733    3.5052  -16.5676 H   0  0  0  0  0  0  0  0  0  0  0  0
  -11.2018    4.4148  -18.5652 H   0  0  0  0  0  0  0  0  0  0  0  0
  -11.4119    6.3985  -20.0848 H   0  0  0  0  0  0  0  0  0  0  0  0
  -10.2054    8.5199  -19.4995 H   0  0  0  0  0  0  0  0  0  0  0  0
   -8.8453    8.5870  -17.4416 H   0  0  0  0  0  0  0  0  0  0  0  0
   -8.7260    0.8370  -12.8690 H   0  0  0  0  0  0  0  0  0  0  0  0
  -10.8803   -0.0537  -11.1614 H   0  0  0  0  0  0  0  0  0  0  0  0
  1  2  1  0
  2  3  1  0
  3  4  2  0
  3  5  1  0
  5  6  2  0
  6  7  1  0
  7  8  2  0
  8  9  1  0
  9 10  2  0
 10 11  1  0
 11 12  1  0
 12 13  2  0
 13 14  1  0
 14 15  2  0
 15 16  1  0
 16 17  1  0
 17 18  2  0
 18 19  1  0
 19 20  2  0
 20 21  1  0
 21 22  2  0
 22 23  1  0
 23 24  2  0
 16 25  2  0
 25 26  1  0
 26 27  1  0
 27 28  2  0
 10  5  1  0
 28 12  1  0
 27 15  1  0
 24 19  1  0
  1 29  1  0
  1 30  1  0
  1 31  1  0
  2 32  1  0
  6 33  1  0
  7 34  1  0
  8 35  1  0
  9 36  1  0
 13 37  1  0
 14 38  1  0
 17 39  1  0
 18 40  1  0
 20 41  1  0
 21 42  1  0
 22 43  1  0
 23 44  1  0
 26 45  1  0
 28 46  1  0
M  END
>  <meeko>  (6) 
{"is_sidechain": false}

>  <vina_affinity_kcal_mol>  (6) 
-8.167

>  <pose_rank>  (6) 
6

$$$$

     RDKit          3D

 46 49  0  0  0  0  0  0  0  0999 V2000
   -9.2890    8.9040  -19.4400 C   0  0  0  0  0  0  0  0  0  0  0  0
   -9.0790    7.5460  -19.0110 N   0  0  0  0  0  0  0  0  0  0  0  0
   -9.1780    7.1910  -17.6850 C   0  0  0  0  0  0  0  0  0  0  0  0
   -9.3330    8.0010  -16.7770 O   0  0  0  0  0  0  0  0  0  0  0  0
   -9.0460    5.7430  -17.3680 C   0  0  0  0  0  0  0  0  0  0  0  0
   -7.8210    5.1500  -17.7220 C   0  0  0  0  0  0  0  0  0  0  0  0
   -7.5900    3.7960  -17.4860 C   0  0  0  0  0  0  0  0  0  0  0  0
   -8.5770    3.0210  -16.8860 C   0  0  0  0  0  0  0  0  0  0  0  0
   -9.7900    3.6040  -16.5120 C   0  0  0  0  0  0  0  0  0  0  0  0
  -10.0370    4.9700  -16.7350 C   0  0  0  0  0  0  0  0  0  0  0  0
  -11.6080    5.6100  -16.1520 S   0  0  0  0  0  0  0  0  0  0  0  0
  -11.9580    4.4360  -14.8490 C   0  0  0  0  0  0  0  0  0  0  0  0
  -13.2550    4.3000  -14.3490 C   0  0  0  0  0  0  0  0  0  0  0  0
  -13.5430    3.3840  -13.3260 C   0  0  0  0  0  0  0  0  0  0  0  0
  -12.5050    2.5900  -12.7970 C   0  0  0  0  0  0  0  0  0  0  0  0
  -12.3710    1.5810  -11.7910 C   0  0  0  0  0  0  0  0  0  0  0  0
  -13.3910    1.0720  -10.9230 C   0  0  0  0  0  0  0  0  0  0  0  0
  -13.2070    0.2440   -9.8790 C   0  0  0  0  0  0  0  0  0  0  0  0
  -14.2940   -0.2600   -9.0290 C   0  0  0  0  0  0  0  0  0  0  0  0
  -14.9900    0.6130   -8.1970 C   0  0  0  0  0  0  0  0  0  0  0  0
  -16.0210    0.1120   -7.4050 C   0  0  0  0  0  0  0  0  0  0  0  0
  -16.3290   -1.2400   -7.4650 C   0  0  0  0  0  0  0  0  0  0  0  0
  -15.5900   -2.0380   -8.3210 C   0  0  0  0  0  0  0  0  0  0  0  0
  -14.5870   -1.5800   -9.0990 N   0  0  0  0  0  0  0  0  0  0  0  0
  -11.1190    1.1020  -11.7490 N   0  0  0  0  0  0  0  0  0  0  0  0
  -10.4600    1.8180  -12.6700 N   0  0  0  0  0  0  0  0  0  0  0  0
  -11.2300    2.7280  -13.3370 C   0  0  0  0  0  0  0  0  0  0  0  0
  -10.9180    3.6360  -14.3560 C   0  0  0  0  0  0  0  0  0  0  0  0
   -9.3897    9.5553  -18.5593 H   0  0  0  0  0  0  0  0  0  0  0  0
   -8.4313    9.2344  -20.0443 H   0  0  0  0  0  0  0  0  0  0  0  0
  -10.2065    8.9599  -20.0443 H   0  0  0  0  0  0  0  0  0  0  0  0
   -9.1010    6.8120  -19.7110 H   0  0  0  0  0  0  0  0  0  0  0  0
   -7.0361    5.7619  -18.1906 H   0  0  0  0  0  0  0  0  0  0  0  0
   -6.6303    3.3417  -17.7733 H   0  0  0  0  0  0  0  0  0  0  0  0
   -8.4024    1.9499  -16.7062 H   0  0  0  0  0  0  0  0  0  0  0  0
  -10.5642    2.9846  -16.0355 H   0  0  0  0  0  0  0  0  0  0  0  0
  -14.0631    4.9206  -14.7636 H   0  0  0  0  0  0  0  0  0  0  0  0
  -14.5686    3.2863  -12.9405 H   0  0  0  0  0  0  0  0  0  0  0  0
  -14.4238    1.3888  -11.1303 H   0  0  0  0  0  0  0  0  0  0  0  0
  -12.1801   -0.0752   -9.6476 H   0  0  0  0  0  0  0  0  0  0  0  0
  -14.7300    1.6814   -8.1655 H   0  0  0  0  0  0  0  0  0  0  0  0
  -16.5852    0.7813   -6.7388 H   0  0  0  0  0  0  0  0  0  0  0  0
  -17.1365   -1.6647   -6.8505 H   0  0  0  0  0  0  0  0  0  0  0  0
  -15.8348   -3.1093   -8.3701 H   0  0  0  0  0  0  0  0  0  0  0  0
   -9.4730    1.6280  -12.8040 H   0  0  0  0  0  0  0  0  0  0  0  0
   -9.8960    3.7184  -14.7544 H   0  0  0  0  0  0  0  0  0  0  0  0
  1  2  1  0
  2  3  1  0
  3  4  2  0
  3  5  1  0
  5  6  2  0
  6  7  1  0
  7  8  2  0
  8  9  1  0
  9 10  2  0
 10 11  1  0
 11 12  1  0
 12 13  2  0
 13 14  1  0
 14 15  2  0
 15 16  1  0
 16 17  1  0
 17 18  2  0
 18 19  1  0
 19 20  2  0
 20 21  1  0
 21 22  2  0
 22 23  1  0
 23 24  2  0
 16 25  2  0
 25 26  1  0
 26 27  1  0
 27 28  2  0
 10  5  1  0
 28 12  1  0
 27 15  1  0
 24 19  1  0
  1 29  1  0
  1 30  1  0
  1 31  1  0
  2 32  1  0
  6 33  1  0
  7 34  1  0
  8 35  1  0
  9 36  1  0
 13 37  1  0
 14 38  1  0
 17 39  1  0
 18 40  1  0
 20 41  1  0
 21 42  1  0
 22 43  1  0
 23 44  1  0
 26 45  1  0
 28 46  1  0
M  END
>  <meeko>  (7) 
{"is_sidechain": false}

>  <vina_affinity_kcal_mol>  (7) 
-8.083

>  <pose_rank>  (7) 
7

$$$$

     RDKit          3D

 46 49  0  0  0  0  0  0  0  0999 V2000
  -11.7590    0.1600   -4.8160 C   0  0  0  0  0  0  0  0  0  0  0  0
  -12.4840   -0.6540   -5.7560 N   0  0  0  0  0  0  0  0  0  0  0  0
  -13.2500   -0.0890   -6.7510 C   0  0  0  0  0  0  0  0  0  0  0  0
  -13.4630    1.1160   -6.8400 O   0  0  0  0  0  0  0  0  0  0  0  0
  -13.8700   -1.0220   -7.7300 C   0  0  0  0  0  0  0  0  0  0  0  0
  -15.2350   -1.2970   -7.5300 C   0  0  0  0  0  0  0  0  0  0  0  0
  -15.9170   -2.1690   -8.3770 C   0  0  0  0  0  0  0  0  0  0  0  0
  -15.2460   -2.7690   -9.4370 C   0  0  0  0  0  0  0  0  0  0  0  0
  -13.8960   -2.4870   -9.6570 C   0  0  0  0  0  0  0  0  0  0  0  0
  -13.1930   -1.6050   -8.8180 C   0  0  0  0  0  0  0  0  0  0  0  0
  -11.4820   -1.2780   -9.2430 S   0  0  0  0  0  0  0  0  0  0  0  0
  -11.7100   -0.0900  -10.5600 C   0  0  0  0  0  0  0  0  0  0  0  0
  -10.7840   -0.0020  -11.6010 C   0  0  0  0  0  0  0  0  0  0  0  0
  -10.9500    0.9270  -12.6390 C   0  0  0  0  0  0  0  0  0  0  0  0
  -12.0710    1.7830  -12.6290 C   0  0  0  0  0  0  0  0  0  0  0  0
  -12.5960    2.8280  -13.4540 C   0  0  0  0  0  0  0  0  0  0  0  0
  -12.0200    3.3680  -14.6500 C   0  0  0  0  0  0  0  0  0  0  0  0
  -10.9240    4.1440  -14.7250 C   0  0  0  0  0  0  0  0  0  0  0  0
  -10.3850    4.6840  -15.9800 C   0  0  0  0  0  0  0  0  0  0  0  0
  -11.0100    5.7630  -16.6000 C   0  0  0  0  0  0  0  0  0  0  0  0
  -10.4750    6.2610  -17.7870 C   0  0  0  0  0  0  0  0  0  0  0  0
   -9.3360    5.6730  -18.3190 C   0  0  0  0  0  0  0  0  0  0  0  0
   -8.7760    4.6060  -17.6380 C   0  0  0  0  0  0  0  0  0  0  0  0
   -9.2720    4.1040  -16.4880 N   0  0  0  0  0  0  0  0  0  0  0  0
  -13.7720    3.2700  -12.9860 N   0  0  0  0  0  0  0  0  0  0  0  0
  -13.9710    2.5600  -11.8680 N   0  0  0  0  0  0  0  0  0  0  0  0
  -12.9900    1.6490  -11.5940 C   0  0  0  0  0  0  0  0  0  0  0  0
  -12.8460    0.7320  -10.5460 C   0  0  0  0  0  0  0  0  0  0  0  0
  -12.0248   -0.1384   -3.7912 H   0  0  0  0  0  0  0  0  0  0  0  0
  -10.6784    0.0229   -4.9692 H   0  0  0  0  0  0  0  0  0  0  0  0
  -12.0198    1.2176   -4.9692 H   0  0  0  0  0  0  0  0  0  0  0  0
  -12.2340   -1.6340   -5.8360 H   0  0  0  0  0  0  0  0  0  0  0  0
  -15.7699   -0.8188   -6.6962 H   0  0  0  0  0  0  0  0  0  0  0  0
  -16.9828   -2.3819   -8.2075 H   0  0  0  0  0  0  0  0  0  0  0  0
  -15.7782   -3.4653  -10.1018 H   0  0  0  0  0  0  0  0  0  0  0  0
  -13.3743   -2.9628  -10.5005 H   0  0  0  0  0  0  0  0  0  0  0  0
   -9.9110   -0.6712  -11.6074 H   0  0  0  0  0  0  0  0  0  0  0  0
  -10.2128    0.9873  -13.4532 H   0  0  0  0  0  0  0  0  0  0  0  0
  -12.5225    3.1244  -15.5977 H   0  0  0  0  0  0  0  0  0  0  0  0
  -10.3995    4.3891  -13.7897 H   0  0  0  0  0  0  0  0  0  0  0  0
  -11.9113    6.2150  -16.1602 H   0  0  0  0  0  0  0  0  0  0  0  0
  -10.9509    7.1116  -18.2969 H   0  0  0  0  0  0  0  0  0  0  0  0
   -8.8914    6.0440  -19.2543 H   0  0  0  0  0  0  0  0  0  0  0  0
   -7.8732    4.1397  -18.0593 H   0  0  0  0  0  0  0  0  0  0  0  0
  -14.8130    2.7410  -11.3330 H   0  0  0  0  0  0  0  0  0  0  0  0
  -13.5945    0.6592   -9.7432 H   0  0  0  0  0  0  0  0  0  0  0  0
  1  2  1  0
  2  3  1  0
  3  4  2  0
  3  5  1  0
  5  6  2  0
  6  7  1  0
  7  8  2  0
  8  9  1  0
  9 10  2  0
 10 11  1  0
 11 12  1  0
 12 13  2  0
 13 14  1  0
 14 15  2  0
 15 16  1  0
 16 17  1  0
 17 18  2  0
 18 19  1  0
 19 20  2  0
 20 21  1  0
 21 22  2  0
 22 23  1  0
 23 24  2  0
 16 25  2  0
 25 26  1  0
 26 27  1  0
 27 28  2  0
 10  5  1  0
 28 12  1  0
 27 15  1  0
 24 19  1  0
  1 29  1  0
  1 30  1  0
  1 31  1  0
  2 32  1  0
  6 33  1  0
  7 34  1  0
  8 35  1  0
  9 36  1  0
 13 37  1  0
 14 38  1  0
 17 39  1  0
 18 40  1  0
 20 41  1  0
 21 42  1  0
 22 43  1  0
 23 44  1  0
 26 45  1  0
 28 46  1  0
M  END
>  <meeko>  (8) 
{"is_sidechain": false}

>  <vina_affinity_kcal_mol>  (8) 
-8.057

>  <pose_rank>  (8) 
8

$$$$

     RDKit          3D

 46 49  0  0  0  0  0  0  0  0999 V2000
  -16.5860   -0.5810   -6.5850 C   0  0  0  0  0  0  0  0  0  0  0  0
  -15.1500   -0.6320   -6.6690 N   0  0  0  0  0  0  0  0  0  0  0  0
  -14.4300    0.3890   -7.2480 C   0  0  0  0  0  0  0  0  0  0  0  0
  -14.9480    1.3390   -7.8250 O   0  0  0  0  0  0  0  0  0  0  0  0
  -12.9480    0.2810   -7.1880 C   0  0  0  0  0  0  0  0  0  0  0  0
  -12.3420    0.8300   -6.0430 C   0  0  0  0  0  0  0  0  0  0  0  0
  -10.9570    0.8000   -5.8860 C   0  0  0  0  0  0  0  0  0  0  0  0
  -10.1630    0.2140   -6.8660 C   0  0  0  0  0  0  0  0  0  0  0  0
  -10.7560   -0.3510   -7.9980 C   0  0  0  0  0  0  0  0  0  0  0  0
  -12.1510   -0.3370   -8.1700 C   0  0  0  0  0  0  0  0  0  0  0  0
  -12.7910   -1.1520   -9.6340 S   0  0  0  0  0  0  0  0  0  0  0  0
  -11.9590   -0.2080  -10.9040 C   0  0  0  0  0  0  0  0  0  0  0  0
  -12.3260    1.1160  -11.1560 C   0  0  0  0  0  0  0  0  0  0  0  0
  -11.6820    1.8680  -12.1510 C   0  0  0  0  0  0  0  0  0  0  0  0
  -10.6490    1.2750  -12.9060 C   0  0  0  0  0  0  0  0  0  0  0  0
   -9.7740    1.6670  -13.9680 C   0  0  0  0  0  0  0  0  0  0  0  0
   -9.7410    2.9260  -14.6520 C   0  0  0  0  0  0  0  0  0  0  0  0
   -9.5080    3.1130  -15.9630 C   0  0  0  0  0  0  0  0  0  0  0  0
   -9.4700    4.4310  -16.6110 C   0  0  0  0  0  0  0  0  0  0  0  0
  -10.4530    5.3750  -16.3260 C   0  0  0  0  0  0  0  0  0  0  0  0
  -10.3920    6.6200  -16.9490 C   0  0  0  0  0  0  0  0  0  0  0  0
   -9.3570    6.8880  -17.8340 C   0  0  0  0  0  0  0  0  0  0  0  0
   -8.4200    5.8950  -18.0590 C   0  0  0  0  0  0  0  0  0  0  0  0
   -8.4540    4.6800  -17.4700 N   0  0  0  0  0  0  0  0  0  0  0  0
   -8.9090    0.6880  -14.2690 N   0  0  0  0  0  0  0  0  0  0  0  0
   -9.2520   -0.3190  -13.4550 N   0  0  0  0  0  0  0  0  0  0  0  0
  -10.2870   -0.0350  -12.6100 C   0  0  0  0  0  0  0  0  0  0  0  0
  -10.9150   -0.8060  -11.6240 C   0  0  0  0  0  0  0  0  0  0  0  0
  -16.8913   -0.5702   -5.5283 H   0  0  0  0  0  0  0  0  0  0  0  0
  -16.9502    0.3306   -7.0813 H   0  0  0  0  0  0  0  0  0  0  0  0
  -17.0139   -1.4645   -7.0813 H   0  0  0  0  0  0  0  0  0  0  0  0
  -14.6570   -1.3000   -6.0860 H   0  0  0  0  0  0  0  0  0  0  0  0
  -12.9680    1.2880   -5.2630 H   0  0  0  0  0  0  0  0  0  0  0  0
  -10.4937    1.2384   -4.9898 H   0  0  0  0  0  0  0  0  0  0  0  0
   -9.0693    0.1953   -6.7501 H   0  0  0  0  0  0  0  0  0  0  0  0
  -10.1207   -0.8144   -8.7672 H   0  0  0  0  0  0  0  0  0  0  0  0
  -13.1320    1.5763  -10.5657 H   0  0  0  0  0  0  0  0  0  0  0  0
  -11.9802    2.9098  -12.3400 H   0  0  0  0  0  0  0  0  0  0  0  0
   -9.9239    3.8258  -14.0463 H   0  0  0  0  0  0  0  0  0  0  0  0
   -9.3353    2.2249  -16.5886 H   0  0  0  0  0  0  0  0  0  0  0  0
  -11.2643    5.1419  -15.6207 H   0  0  0  0  0  0  0  0  0  0  0  0
  -11.1567    7.3830  -16.7414 H   0  0  0  0  0  0  0  0  0  0  0  0
   -9.2837    7.8611  -18.3416 H   0  0  0  0  0  0  0  0  0  0  0  0
   -7.5987    6.1077  -18.7591 H   0  0  0  0  0  0  0  0  0  0  0  0
   -8.7270   -1.1830  -13.5200 H   0  0  0  0  0  0  0  0  0  0  0  0
  -10.6014   -1.8408  -11.4221 H   0  0  0  0  0  0  0  0  0  0  0  0
  1  2  1  0
  2  3  1  0
  3  4  2  0
  3  5  1  0
  5  6  2  0
  6  7  1  0
  7  8  2  0
  8  9  1  0
  9 10  2  0
 10 11  1  0
 11 12  1  0
 12 13  2  0
 13 14  1  0
 14 15  2  0
 15 16  1  0
 16 17  1  0
 17 18  2  0
 18 19  1  0
 19 20  2  0
 20 21  1  0
 21 22  2  0
 22 23  1  0
 23 24  2  0
 16 25  2  0
 25 26  1  0
 26 27  1  0
 27 28  2  0
 10  5  1  0
 28 12  1  0
 27 15  1  0
 24 19  1  0
  1 29  1  0
  1 30  1  0
  1 31  1  0
  2 32  1  0
  6 33  1  0
  7 34  1  0
  8 35  1  0
  9 36  1  0
 13 37  1  0
 14 38  1  0
 17 39  1  0
 18 40  1  0
 20 41  1  0
 21 42  1  0
 22 43  1  0
 23 44  1  0
 26 45  1  0
 28 46  1  0
M  END
>  <meeko>  (9) 
{"is_sidechain": false}

>  <vina_affinity_kcal_mol>  (9) 
-7.948

>  <pose_rank>  (9) 
9

$$$$

     RDKit          3D

 46 49  0  0  0  0  0  0  0  0999 V2000
   -9.8180    0.1670   -6.8290 C   0  0  0  0  0  0  0  0  0  0  0  0
  -10.4250   -0.8330   -7.6680 N   0  0  0  0  0  0  0  0  0  0  0  0
  -11.6540   -1.3740   -7.3620 C   0  0  0  0  0  0  0  0  0  0  0  0
  -12.2560   -1.1400   -6.3190 O   0  0  0  0  0  0  0  0  0  0  0  0
  -12.2340   -2.3200   -8.3520 C   0  0  0  0  0  0  0  0  0  0  0  0
  -11.6830   -3.6140   -8.3540 C   0  0  0  0  0  0  0  0  0  0  0  0
  -12.1390   -4.5810   -9.2500 C   0  0  0  0  0  0  0  0  0  0  0  0
  -13.1540   -4.2670  -10.1470 C   0  0  0  0  0  0  0  0  0  0  0  0
  -13.7220   -2.9910  -10.1400 C   0  0  0  0  0  0  0  0  0  0  0  0
  -13.2810   -2.0060   -9.2400 C   0  0  0  0  0  0  0  0  0  0  0  0
  -14.1330   -0.4280   -9.2890 S   0  0  0  0  0  0  0  0  0  0  0  0
  -13.1580    0.4130  -10.5300 C   0  0  0  0  0  0  0  0  0  0  0  0
  -13.6500    1.5590  -11.1580 C   0  0  0  0  0  0  0  0  0  0  0  0
  -12.8970    2.2270  -12.1350 C   0  0  0  0  0  0  0  0  0  0  0  0
  -11.6240    1.7330  -12.4850 C   0  0  0  0  0  0  0  0  0  0  0  0
  -10.5760    2.0920  -13.3920 C   0  0  0  0  0  0  0  0  0  0  0  0
  -10.5650    3.1790  -14.3260 C   0  0  0  0  0  0  0  0  0  0  0  0
   -9.6670    3.3730  -15.3080 C   0  0  0  0  0  0  0  0  0  0  0  0
   -9.6940    4.5150  -16.2320 C   0  0  0  0  0  0  0  0  0  0  0  0
   -8.6100    4.7580  -17.0710 C   0  0  0  0  0  0  0  0  0  0  0  0
   -8.6620    5.8440  -17.9420 C   0  0  0  0  0  0  0  0  0  0  0  0
   -9.7900    6.6540  -17.9540 C   0  0  0  0  0  0  0  0  0  0  0  0
  -10.8240    6.3400  -17.0890 C   0  0  0  0  0  0  0  0  0  0  0  0
  -10.8010    5.2950  -16.2350 N   0  0  0  0  0  0  0  0  0  0  0  0
   -9.5200    1.2770  -13.2580 N   0  0  0  0  0  0  0  0  0  0  0  0
   -9.9000    0.3920  -12.3270 N   0  0  0  0  0  0  0  0  0  0  0  0
  -11.1500    0.6070  -11.8200 C   0  0  0  0  0  0  0  0  0  0  0  0
  -11.8830   -0.0790  -10.8430 C   0  0  0  0  0  0  0  0  0  0  0  0
   -9.9770   -0.0950   -5.7726 H   0  0  0  0  0  0  0  0  0  0  0  0
   -8.7388    0.2140   -7.0367 H   0  0  0  0  0  0  0  0  0  0  0  0
  -10.2743    1.1461   -7.0367 H   0  0  0  0  0  0  0  0  0  0  0  0
  -10.0640   -0.9560   -8.6070 H   0  0  0  0  0  0  0  0  0  0  0  0
  -10.8839   -3.8662   -7.6414 H   0  0  0  0  0  0  0  0  0  0  0  0
  -11.6972   -5.5884   -9.2470 H   0  0  0  0  0  0  0  0  0  0  0  0
  -13.5096   -5.0235  -10.8621 H   0  0  0  0  0  0  0  0  0  0  0  0
  -14.5275   -2.7533  -10.8504 H   0  0  0  0  0  0  0  0  0  0  0  0
  -14.6430    1.9438  -10.8825 H   0  0  0  0  0  0  0  0  0  0  0  0
  -13.2963    3.1281  -12.6235 H   0  0  0  0  0  0  0  0  0  0  0  0
  -11.3673    3.9255  -14.2305 H   0  0  0  0  0  0  0  0  0  0  0  0
   -8.8632    2.6315  -15.4267 H   0  0  0  0  0  0  0  0  0  0  0  0
   -7.7266    4.1030  -17.0466 H   0  0  0  0  0  0  0  0  0  0  0  0
   -7.8177    6.0579  -18.6138 H   0  0  0  0  0  0  0  0  0  0  0  0
   -9.8596    7.5187  -18.6303 H   0  0  0  0  0  0  0  0  0  0  0  0
  -11.7182    6.9806  -17.0981 H   0  0  0  0  0  0  0  0  0  0  0  0
   -9.2470   -0.3390  -12.0710 H   0  0  0  0  0  0  0  0  0  0  0  0
  -11.4744   -0.9685  -10.3412 H   0  0  0  0  0  0  0  0  0  0  0  0
  1  2  1  0
  2  3  1  0
  3  4  2  0
  3  5  1  0
  5  6  2  0
  6  7  1  0
  7  8  2  0
  8  9  1  0
  9 10  2  0
 10 11  1  0
 11 12  1  0
 12 13  2  0
 13 14  1  0
 14 15  2  0
 15 16  1  0
 16 17  1  0
 17 18  2  0
 18 19  1  0
 19 20  2  0
 20 21  1  0
 21 22  2  0
 22 23  1  0
 23 24  2  0
 16 25  2  0
 25 26  1  0
 26 27  1  0
 27 28  2  0
 10  5  1  0
 28 12  1  0
 27 15  1  0
 24 19  1  0
  1 29  1  0
  1 30  1  0
  1 31  1  0
  2 32  1  0
  6 33  1  0
  7 34  1  0
  8 35  1  0
  9 36  1  0
 13 37  1  0
 14 38  1  0
 17 39  1  0
 18 40  1  0
 20 41  1  0
 21 42  1  0
 22 43  1  0
 23 44  1  0
 26 45  1  0
 28 46  1  0
M  END
>  <meeko>  (10) 
{"is_sidechain": false}

>  <vina_affinity_kcal_mol>  (10) 
-7.92

>  <pose_rank>  (10) 
10

$$$$
