
     RDKit          3D

 25 26  0  0  0  0  0  0  0  0999 V2000
    3.5942    0.9060   -0.7539 C   0  0  0  0  0  0  0  0  0  0  0  0
    2.4874    0.1149   -0.1255 C   0  0  0  0  0  0  0  0  0  0  0  0
    2.8566   -1.0077    0.6981 C   0  0  0  0  0  0  0  0  0  0  0  0
    1.9148   -1.7656    1.2661 C   0  0  0  0  0  0  0  0  0  0  0  0
    0.4662   -1.4639    1.0838 C   0  0  0  0  0  0  0  0  0  0  0  0
   -0.3208   -2.1872    1.6933 O   0  0  0  0  0  0  0  0  0  0  0  0
    0.1543   -0.3558    0.2616 N   0  0  0  0  0  0  0  0  0  0  0  0
   -1.2312    0.0020    0.0288 C   0  0  0  0  0  0  0  0  0  0  0  0
   -2.2582   -0.9547    0.0486 C   0  0  0  0  0  0  0  0  0  0  0  0
   -3.5911   -0.6012   -0.1946 C   0  0  0  0  0  0  0  0  0  0  0  0
   -3.9273    0.7205   -0.4634 C   0  0  0  0  0  0  0  0  0  0  0  0
   -2.9306    1.6890   -0.4880 C   0  0  0  0  0  0  0  0  0  0  0  0
   -1.5984    1.3328   -0.2462 C   0  0  0  0  0  0  0  0  0  0  0  0
    1.1876    0.3935   -0.3104 C   0  0  0  0  0  0  0  0  0  0  0  0
    4.2040    0.2678   -1.4024 H   0  0  0  0  0  0  0  0  0  0  0  0
    3.2107    1.7297   -1.3656 H   0  0  0  0  0  0  0  0  0  0  0  0
    4.2421    1.3392    0.0157 H   0  0  0  0  0  0  0  0  0  0  0  0
    3.9078   -1.2346    0.8462 H   0  0  0  0  0  0  0  0  0  0  0  0
    2.1516   -2.6172    1.8912 H   0  0  0  0  0  0  0  0  0  0  0  0
   -2.0475   -2.0067    0.2209 H   0  0  0  0  0  0  0  0  0  0  0  0
   -4.3623   -1.3673   -0.1751 H   0  0  0  0  0  0  0  0  0  0  0  0
   -4.9625    0.9941   -0.6483 H   0  0  0  0  0  0  0  0  0  0  0  0
   -3.1871    2.7269   -0.6843 H   0  0  0  0  0  0  0  0  0  0  0  0
   -0.8660    2.1344   -0.2321 H   0  0  0  0  0  0  0  0  0  0  0  0
    0.9056    1.2112   -0.9646 H   0  0  0  0  0  0  0  0  0  0  0  0
  1  2  1  0
  2  3  1  0
  3  4  2  0
  4  5  1  0
  5  6  2  0
  5  7  1  0
  7  8  1  0
  8  9  2  0
  9 10  1  0
 10 11  2  0
 11 12  1  0
 12 13  2  0
  7 14  1  0
 14  2  2  0
 13  8  1  0
  1 15  1  0
  1 16  1  0
  1 17  1  0
  3 18  1  0
  4 19  1  0
  9 20  1  0
 10 21  1  0
 11 22  1  0
 12 23  1  0
 13 24  1  0
 14 25  1  0
M  END
$$$$
