
     RDKit          3D

 25 26  0  0  0  0  0  0  0  0999 V2000
  -13.7550    4.1460  -13.5790 C   0  0  0  0  0  0  0  0  0  0  0  0
  -12.4240    4.0850  -14.2660 C   0  0  0  0  0  0  0  0  0  0  0  0
  -11.5000    3.0660  -13.8350 C   0  0  0  0  0  0  0  0  0  0  0  0
  -10.2900    2.9760  -14.3930 C   0  0  0  0  0  0  0  0  0  0  0  0
   -9.8690    3.9040  -15.4820 C   0  0  0  0  0  0  0  0  0  0  0  0
   -8.7570    3.7040  -15.9680 O   0  0  0  0  0  0  0  0  0  0  0  0
  -10.8090    4.8900  -15.8650 N   0  0  0  0  0  0  0  0  0  0  0  0
  -10.4760    5.8350  -16.9120 C   0  0  0  0  0  0  0  0  0  0  0  0
  -10.7560    5.5740  -18.2630 C   0  0  0  0  0  0  0  0  0  0  0  0
  -10.4150    6.4870  -19.2690 C   0  0  0  0  0  0  0  0  0  0  0  0
   -9.7870    7.6840  -18.9450 C   0  0  0  0  0  0  0  0  0  0  0  0
   -9.4990    7.9680  -17.6160 C   0  0  0  0  0  0  0  0  0  0  0  0
   -9.8390    7.0530  -16.6110 C   0  0  0  0  0  0  0  0  0  0  0  0
  -12.0580    4.9350  -15.2360 C   0  0  0  0  0  0  0  0  0  0  0  0
  -13.6058    4.1392  -12.4892 H   0  0  0  0  0  0  0  0  0  0  0  0
  -14.2768    5.0690  -13.8719 H   0  0  0  0  0  0  0  0  0  0  0  0
  -14.3591    3.2746  -13.8719 H   0  0  0  0  0  0  0  0  0  0  0  0
  -11.7925    2.3601  -13.0437 H   0  0  0  0  0  0  0  0  0  0  0  0
   -9.5905    2.2027  -14.0427 H   0  0  0  0  0  0  0  0  0  0  0  0
  -11.2539    4.6322  -18.5372 H   0  0  0  0  0  0  0  0  0  0  0  0
  -10.6451    6.2559  -20.3195 H   0  0  0  0  0  0  0  0  0  0  0  0
   -9.5200    8.4012  -19.7352 H   0  0  0  0  0  0  0  0  0  0  0  0
   -9.0028    8.9136  -17.3521 H   0  0  0  0  0  0  0  0  0  0  0  0
   -9.6028    7.2920  -15.5636 H   0  0  0  0  0  0  0  0  0  0  0  0
  -12.7754    5.7062  -15.5532 H   0  0  0  0  0  0  0  0  0  0  0  0
  1  2  1  0
  2  3  1  0
  3  4  2  0
  4  5  1  0
  5  6  2  0
  5  7  1  0
  7  8  1  0
  8  9  2  0
  9 10  1  0
 10 11  2  0
 11 12  1  0
 12 13  2  0
  7 14  1  0
 14  2  2  0
 13  8  1  0
  1 15  1  0
  1 16  1  0
  1 17  1  0
  3 18  1  0
  4 19  1  0
  9 20  1  0
 10 21  1  0
 11 22  1  0
 12 23  1  0
 13 24  1  0
 14 25  1  0
M  END
>  <meeko>  (1) 
{"is_sidechain": false}

>  <vina_affinity_kcal_mol>  (1) 
-7.183

>  <pose_rank>  (1) 
1

$$$$

     RDKit          3D

 25 26  0  0  0  0  0  0  0  0999 V2000
  -11.9090    4.4640  -14.3690 C   0  0  0  0  0  0  0  0  0  0  0  0
  -10.8600    4.5060  -15.4380 C   0  0  0  0  0  0  0  0  0  0  0  0
   -9.8390    3.4890  -15.4090 C   0  0  0  0  0  0  0  0  0  0  0  0
   -8.8640    3.4880  -16.3210 C   0  0  0  0  0  0  0  0  0  0  0  0
   -8.8130    4.5150  -17.4010 C   0  0  0  0  0  0  0  0  0  0  0  0
   -7.9080    4.3940  -18.2250 O   0  0  0  0  0  0  0  0  0  0  0  0
   -9.8340    5.4940  -17.3840 N   0  0  0  0  0  0  0  0  0  0  0  0
   -9.8540    6.5320  -18.3960 C   0  0  0  0  0  0  0  0  0  0  0  0
  -10.3370    6.2940  -19.6920 C   0  0  0  0  0  0  0  0  0  0  0  0
  -10.3360    7.3000  -20.6680 C   0  0  0  0  0  0  0  0  0  0  0  0
   -9.8530    8.5680  -20.3660 C   0  0  0  0  0  0  0  0  0  0  0  0
   -9.3710    8.8310  -19.0900 C   0  0  0  0  0  0  0  0  0  0  0  0
   -9.3700    7.8240  -18.1170 C   0  0  0  0  0  0  0  0  0  0  0  0
  -10.8240    5.4450  -16.3960 C   0  0  0  0  0  0  0  0  0  0  0  0
  -11.4264    4.4833  -13.3807 H   0  0  0  0  0  0  0  0  0  0  0  0
  -12.5713    5.3363  -14.4707 H   0  0  0  0  0  0  0  0  0  0  0  0
  -12.4995    3.5415  -14.4707 H   0  0  0  0  0  0  0  0  0  0  0  0
   -9.8633    2.7105  -14.6322 H   0  0  0  0  0  0  0  0  0  0  0  0
   -8.0831    2.7146  -16.2749 H   0  0  0  0  0  0  0  0  0  0  0  0
  -10.7246    5.2967  -19.9473 H   0  0  0  0  0  0  0  0  0  0  0  0
  -10.7188    7.0853  -21.6766 H   0  0  0  0  0  0  0  0  0  0  0  0
   -9.8525    9.3575  -21.1320 H   0  0  0  0  0  0  0  0  0  0  0  0
   -8.9892    9.8327  -18.8433 H   0  0  0  0  0  0  0  0  0  0  0  0
   -8.9823    8.0476  -17.1122 H   0  0  0  0  0  0  0  0  0  0  0  0
  -11.6109    6.2136  -16.4052 H   0  0  0  0  0  0  0  0  0  0  0  0
  1  2  1  0
  2  3  1  0
  3  4  2  0
  4  5  1  0
  5  6  2  0
  5  7  1  0
  7  8  1  0
  8  9  2  0
  9 10  1  0
 10 11  2  0
 11 12  1  0
 12 13  2  0
  7 14  1  0
 14  2  2  0
 13  8  1  0
  1 15  1  0
  1 16  1  0
  1 17  1  0
  3 18  1  0
  4 19  1  0
  9 20  1  0
 10 21  1  0
 11 22  1  0
 12 23  1  0
 13 24  1  0
 14 25  1  0
M  END
>  <meeko>  (2) 
{"is_sidechain": false}

>  <vina_affinity_kcal_mol>  (2) 
-7.135

>  <pose_rank>  (2) 
2

$$$$

     RDKit          3D

 25 26  0  0  0  0  0  0  0  0999 V2000
  -10.3240    7.0880  -21.9150 C   0  0  0  0  0  0  0  0  0  0  0  0
  -10.0830    7.3370  -20.4580 C   0  0  0  0  0  0  0  0  0  0  0  0
   -9.6440    8.6550  -20.0720 C   0  0  0  0  0  0  0  0  0  0  0  0
   -9.3890    8.9320  -18.7900 C   0  0  0  0  0  0  0  0  0  0  0  0
   -9.5690    7.9020  -17.7270 C   0  0  0  0  0  0  0  0  0  0  0  0
   -9.3620    8.2710  -16.5720 O   0  0  0  0  0  0  0  0  0  0  0  0
   -9.9950    6.6230  -18.1560 N   0  0  0  0  0  0  0  0  0  0  0  0
  -10.1880    5.5640  -17.1860 C   0  0  0  0  0  0  0  0  0  0  0  0
  -11.1750    5.6410  -16.1900 C   0  0  0  0  0  0  0  0  0  0  0  0
  -11.3420    4.6200  -15.2470 C   0  0  0  0  0  0  0  0  0  0  0  0
  -10.5250    3.4960  -15.2790 C   0  0  0  0  0  0  0  0  0  0  0  0
   -9.5400    3.3930  -16.2540 C   0  0  0  0  0  0  0  0  0  0  0  0
   -9.3730    4.4160  -17.1950 C   0  0  0  0  0  0  0  0  0  0  0  0
  -10.2380    6.3950  -19.5150 C   0  0  0  0  0  0  0  0  0  0  0  0
  -11.0847    6.3021  -22.0317 H   0  0  0  0  0  0  0  0  0  0  0  0
  -10.6775    8.0142  -22.3917 H   0  0  0  0  0  0  0  0  0  0  0  0
   -9.3868    6.7649  -22.3917 H   0  0  0  0  0  0  0  0  0  0  0  0
   -9.5184    9.4360  -20.8364 H   0  0  0  0  0  0  0  0  0  0  0  0
   -9.0400    9.9380  -18.5138 H   0  0  0  0  0  0  0  0  0  0  0  0
  -11.8312    6.5229  -16.1500 H   0  0  0  0  0  0  0  0  0  0  0  0
  -12.1231    4.7076  -14.4774 H   0  0  0  0  0  0  0  0  0  0  0  0
  -10.6571    2.6938  -14.5380 H   0  0  0  0  0  0  0  0  0  0  0  0
   -8.8903    2.5059  -16.2864 H   0  0  0  0  0  0  0  0  0  0  0  0
   -8.5871    4.3207  -17.9588 H   0  0  0  0  0  0  0  0  0  0  0  0
  -10.5726    5.3942  -19.8256 H   0  0  0  0  0  0  0  0  0  0  0  0
  1  2  1  0
  2  3  1  0
  3  4  2  0
  4  5  1  0
  5  6  2  0
  5  7  1  0
  7  8  1  0
  8  9  2  0
  9 10  1  0
 10 11  2  0
 11 12  1  0
 12 13  2  0
  7 14  1  0
 14  2  2  0
 13  8  1  0
  1 15  1  0
  1 16  1  0
  1 17  1  0
  3 18  1  0
  4 19  1  0
  9 20  1  0
 10 21  1  0
 11 22  1  0
 12 23  1  0
 13 24  1  0
 14 25  1  0
M  END
>  <meeko>  (3) 
{"is_sidechain": false}

>  <vina_affinity_kcal_mol>  (3) 
-7.092

>  <pose_rank>  (3) 
3

$$$$

     RDKit          3D

 25 26  0  0  0  0  0  0  0  0999 V2000
   -7.1330    2.6440  -16.6930 C   0  0  0  0  0  0  0  0  0  0  0  0
   -8.3040    3.5800  -16.6810 C   0  0  0  0  0  0  0  0  0  0  0  0
   -9.3160    3.3660  -15.6780 C   0  0  0  0  0  0  0  0  0  0  0  0
  -10.3950    4.1520  -15.6310 C   0  0  0  0  0  0  0  0  0  0  0  0
  -10.5730    5.2780  -16.5920 C   0  0  0  0  0  0  0  0  0  0  0  0
  -11.5720    5.9780  -16.4310 O   0  0  0  0  0  0  0  0  0  0  0  0
   -9.5560    5.4440  -17.5610 N   0  0  0  0  0  0  0  0  0  0  0  0
   -9.6550    6.5110  -18.5360 C   0  0  0  0  0  0  0  0  0  0  0  0
  -10.0510    6.2700  -19.8620 C   0  0  0  0  0  0  0  0  0  0  0  0
  -10.1270    7.3070  -20.8010 C   0  0  0  0  0  0  0  0  0  0  0  0
   -9.8100    8.6090  -20.4340 C   0  0  0  0  0  0  0  0  0  0  0  0
   -9.4160    8.8760  -19.1290 C   0  0  0  0  0  0  0  0  0  0  0  0
   -9.3380    7.8390  -18.1910 C   0  0  0  0  0  0  0  0  0  0  0  0
   -8.4540    4.5810  -17.5610 C   0  0  0  0  0  0  0  0  0  0  0  0
   -6.8401    2.4099  -15.6589 H   0  0  0  0  0  0  0  0  0  0  0  0
   -7.4106    1.7161  -17.2145 H   0  0  0  0  0  0  0  0  0  0  0  0
   -6.2891    3.1192  -17.2145 H   0  0  0  0  0  0  0  0  0  0  0  0
   -9.1995    2.5517  -14.9477 H   0  0  0  0  0  0  0  0  0  0  0  0
  -11.1664    3.9651  -14.8694 H   0  0  0  0  0  0  0  0  0  0  0  0
  -10.3069    5.2454  -20.1696 H   0  0  0  0  0  0  0  0  0  0  0  0
  -10.4390    7.0895  -21.8332 H   0  0  0  0  0  0  0  0  0  0  0  0
   -9.8706    9.4227  -21.1717 H   0  0  0  0  0  0  0  0  0  0  0  0
   -9.1646    9.9047  -18.8315 H   0  0  0  0  0  0  0  0  0  0  0  0
   -9.0222    8.0668  -17.1622 H   0  0  0  0  0  0  0  0  0  0  0  0
   -7.6723    4.7312  -18.3203 H   0  0  0  0  0  0  0  0  0  0  0  0
  1  2  1  0
  2  3  1  0
  3  4  2  0
  4  5  1  0
  5  6  2  0
  5  7  1  0
  7  8  1  0
  8  9  2  0
  9 10  1  0
 10 11  2  0
 11 12  1  0
 12 13  2  0
  7 14  1  0
 14  2  2  0
 13  8  1  0
  1 15  1  0
  1 16  1  0
  1 17  1  0
  3 18  1  0
  4 19  1  0
  9 20  1  0
 10 21  1  0
 11 22  1  0
 12 23  1  0
 13 24  1  0
 14 25  1  0
M  END
>  <meeko>  (4) 
{"is_sidechain": false}

>  <vina_affinity_kcal_mol>  (4) 
-6.765

>  <pose_rank>  (4) 
4

$$$$

     RDKit          3D

 25 26  0  0  0  0  0  0  0  0999 V2000
  -13.6320    1.7990  -11.5830 C   0  0  0  0  0  0  0  0  0  0  0  0
  -13.0150    2.6670  -12.6370 C   0  0  0  0  0  0  0  0  0  0  0  0
  -13.8460    3.6820  -13.2340 C   0  0  0  0  0  0  0  0  0  0  0  0
  -13.3600    4.4720  -14.1950 C   0  0  0  0  0  0  0  0  0  0  0  0
  -11.9500    4.3430  -14.6620 C   0  0  0  0  0  0  0  0  0  0  0  0
  -11.5820    5.1530  -15.5110 O   0  0  0  0  0  0  0  0  0  0  0  0
  -11.1760    3.3290  -14.0510 N   0  0  0  0  0  0  0  0  0  0  0  0
   -9.7970    3.1330  -14.4510 C   0  0  0  0  0  0  0  0  0  0  0  0
   -9.4160    3.0890  -15.8020 C   0  0  0  0  0  0  0  0  0  0  0  0
   -8.0830    2.8820  -16.1780 C   0  0  0  0  0  0  0  0  0  0  0  0
   -7.0990    2.7160  -15.2090 C   0  0  0  0  0  0  0  0  0  0  0  0
   -7.4480    2.7560  -13.8650 C   0  0  0  0  0  0  0  0  0  0  0  0
   -8.7820    2.9610  -13.4910 C   0  0  0  0  0  0  0  0  0  0  0  0
  -11.7470    2.5300  -13.0530 C   0  0  0  0  0  0  0  0  0  0  0  0
  -13.3603    2.1812  -10.5880 H   0  0  0  0  0  0  0  0  0  0  0  0
  -14.7264    1.8096  -11.6936 H   0  0  0  0  0  0  0  0  0  0  0  0
  -13.2623    0.7689  -11.6936 H   0  0  0  0  0  0  0  0  0  0  0  0
  -14.8855    3.8066  -12.8965 H   0  0  0  0  0  0  0  0  0  0  0  0
  -14.0121    5.2319  -14.6504 H   0  0  0  0  0  0  0  0  0  0  0  0
  -10.1810    3.2199  -16.5815 H   0  0  0  0  0  0  0  0  0  0  0  0
   -7.8130    2.8506  -17.2439 H   0  0  0  0  0  0  0  0  0  0  0  0
   -6.0520    2.5542  -15.5048 H   0  0  0  0  0  0  0  0  0  0  0  0
   -6.6751    2.6264  -13.0930 H   0  0  0  0  0  0  0  0  0  0  0  0
   -9.0425    2.9882  -12.4226 H   0  0  0  0  0  0  0  0  0  0  0  0
  -11.1251    1.7515  -12.5870 H   0  0  0  0  0  0  0  0  0  0  0  0
  1  2  1  0
  2  3  1  0
  3  4  2  0
  4  5  1  0
  5  6  2  0
  5  7  1  0
  7  8  1  0
  8  9  2  0
  9 10  1  0
 10 11  2  0
 11 12  1  0
 12 13  2  0
  7 14  1  0
 14  2  2  0
 13  8  1  0
  1 15  1  0
  1 16  1  0
  1 17  1  0
  3 18  1  0
  4 19  1  0
  9 20  1  0
 10 21  1  0
 11 22  1  0
 12 23  1  0
 13 24  1  0
 14 25  1  0
M  END
>  <meeko>  (5) 
{"is_sidechain": false}

>  <vina_affinity_kcal_mol>  (5) 
-6.522

>  <pose_rank>  (5) 
5

$$$$

     RDKit          3D

 25 26  0  0  0  0  0  0  0  0999 V2000
   -8.9380    2.4550  -13.8900 C   0  0  0  0  0  0  0  0  0  0  0  0
   -9.9810    3.3680  -14.4600 C   0  0  0  0  0  0  0  0  0  0  0  0
  -11.3050    3.3000  -13.8930 C   0  0  0  0  0  0  0  0  0  0  0  0
  -12.2830    4.0720  -14.3740 C   0  0  0  0  0  0  0  0  0  0  0  0
  -12.0340    5.0330  -15.4860 C   0  0  0  0  0  0  0  0  0  0  0  0
  -12.9850    5.7380  -15.8200 O   0  0  0  0  0  0  0  0  0  0  0  0
  -10.7210    5.0580  -16.0120 N   0  0  0  0  0  0  0  0  0  0  0  0
  -10.3970    5.9610  -17.0990 C   0  0  0  0  0  0  0  0  0  0  0  0
   -9.7650    7.1940  -16.8760 C   0  0  0  0  0  0  0  0  0  0  0  0
   -9.4720    8.0660  -17.9310 C   0  0  0  0  0  0  0  0  0  0  0  0
   -9.8030    7.7220  -19.2370 C   0  0  0  0  0  0  0  0  0  0  0  0
  -10.4270    6.5070  -19.4870 C   0  0  0  0  0  0  0  0  0  0  0  0
  -10.7220    5.6370  -18.4300 C   0  0  0  0  0  0  0  0  0  0  0  0
   -9.7420    4.2190  -15.4690 C   0  0  0  0  0  0  0  0  0  0  0  0
   -8.9796    2.4914  -12.7914 H   0  0  0  0  0  0  0  0  0  0  0  0
   -9.1260    1.4259  -14.2301 H   0  0  0  0  0  0  0  0  0  0  0  0
   -7.9429    2.7775  -14.2301 H   0  0  0  0  0  0  0  0  0  0  0  0
  -11.5103    2.6099  -13.0614 H   0  0  0  0  0  0  0  0  0  0  0  0
  -13.2915    3.9972  -13.9413 H   0  0  0  0  0  0  0  0  0  0  0  0
   -9.4939    7.4815  -15.8494 H   0  0  0  0  0  0  0  0  0  0  0  0
   -8.9779    9.0272  -17.7261 H   0  0  0  0  0  0  0  0  0  0  0  0
   -9.5722    8.4073  -20.0659 H   0  0  0  0  0  0  0  0  0  0  0  0
  -10.6902    6.2272  -20.5177 H   0  0  0  0  0  0  0  0  0  0  0  0
  -11.2187    4.6792  -18.6444 H   0  0  0  0  0  0  0  0  0  0  0  0
   -8.7266    4.2591  -15.8901 H   0  0  0  0  0  0  0  0  0  0  0  0
  1  2  1  0
  2  3  1  0
  3  4  2  0
  4  5  1  0
  5  6  2  0
  5  7  1  0
  7  8  1  0
  8  9  2  0
  9 10  1  0
 10 11  2  0
 11 12  1  0
 12 13  2  0
  7 14  1  0
 14  2  2  0
 13  8  1  0
  1 15  1  0
  1 16  1  0
  1 17  1  0
  3 18  1  0
  4 19  1  0
  9 20  1  0
 10 21  1  0
 11 22  1  0
 12 23  1  0
 13 24  1  0
 14 25  1  0
M  END
>  <meeko>  (6) 
{"is_sidechain": false}

>  <vina_affinity_kcal_mol>  (6) 
-6.495

>  <pose_rank>  (6) 
6

$$$$

     RDKit          3D

 25 26  0  0  0  0  0  0  0  0999 V2000
   -9.6390    7.5710  -17.5440 C   0  0  0  0  0  0  0  0  0  0  0  0
   -9.6160    6.1620  -17.0350 C   0  0  0  0  0  0  0  0  0  0  0  0
   -8.5970    5.2850  -17.5540 C   0  0  0  0  0  0  0  0  0  0  0  0
   -8.5390    4.0100  -17.1570 C   0  0  0  0  0  0  0  0  0  0  0  0
   -9.5050    3.4670  -16.1590 C   0  0  0  0  0  0  0  0  0  0  0  0
   -9.3340    2.2980  -15.8170 O   0  0  0  0  0  0  0  0  0  0  0  0
  -10.4900    4.3650  -15.6850 N   0  0  0  0  0  0  0  0  0  0  0  0
  -11.4700    3.9150  -14.7170 C   0  0  0  0  0  0  0  0  0  0  0  0
  -11.1770    2.9190  -13.7720 C   0  0  0  0  0  0  0  0  0  0  0  0
  -12.1380    2.4790  -12.8530 C   0  0  0  0  0  0  0  0  0  0  0  0
  -13.4150    3.0280  -12.8570 C   0  0  0  0  0  0  0  0  0  0  0  0
  -13.7320    4.0160  -13.7800 C   0  0  0  0  0  0  0  0  0  0  0  0
  -12.7710    4.4540  -14.7000 C   0  0  0  0  0  0  0  0  0  0  0  0
  -10.5000    5.6870  -16.1460 C   0  0  0  0  0  0  0  0  0  0  0  0
   -9.6504    8.2681  -16.6932 H   0  0  0  0  0  0  0  0  0  0  0  0
   -8.7437    7.7543  -18.1563 H   0  0  0  0  0  0  0  0  0  0  0  0
  -10.5398    7.7250  -18.1563 H   0  0  0  0  0  0  0  0  0  0  0  0
   -7.8638    5.6665  -18.2799 H   0  0  0  0  0  0  0  0  0  0  0  0
   -7.7647    3.3493  -17.5740 H   0  0  0  0  0  0  0  0  0  0  0  0
  -10.1710    2.4746  -13.7529 H   0  0  0  0  0  0  0  0  0  0  0  0
  -11.8811    1.6955  -12.1249 H   0  0  0  0  0  0  0  0  0  0  0  0
  -14.1689    2.6824  -12.1344 H   0  0  0  0  0  0  0  0  0  0  0  0
  -14.7403    4.4557  -13.7886 H   0  0  0  0  0  0  0  0  0  0  0  0
  -13.0384    5.2364  -15.4254 H   0  0  0  0  0  0  0  0  0  0  0  0
  -11.2712    6.3696  -15.7597 H   0  0  0  0  0  0  0  0  0  0  0  0
  1  2  1  0
  2  3  1  0
  3  4  2  0
  4  5  1  0
  5  6  2  0
  5  7  1  0
  7  8  1  0
  8  9  2  0
  9 10  1  0
 10 11  2  0
 11 12  1  0
 12 13  2  0
  7 14  1  0
 14  2  2  0
 13  8  1  0
  1 15  1  0
  1 16  1  0
  1 17  1  0
  3 18  1  0
  4 19  1  0
  9 20  1  0
 10 21  1  0
 11 22  1  0
 12 23  1  0
 13 24  1  0
 14 25  1  0
M  END
>  <meeko>  (7) 
{"is_sidechain": false}

>  <vina_affinity_kcal_mol>  (7) 
-6.392

>  <pose_rank>  (7) 
7

$$$$

     RDKit          3D

 25 26  0  0  0  0  0  0  0  0999 V2000
  -11.5360    0.7740  -11.2080 C   0  0  0  0  0  0  0  0  0  0  0  0
  -12.1220    1.8030  -12.1270 C   0  0  0  0  0  0  0  0  0  0  0  0
  -13.5110    2.1420  -11.9460 C   0  0  0  0  0  0  0  0  0  0  0  0
  -14.0960    3.0340  -12.7490 C   0  0  0  0  0  0  0  0  0  0  0  0
  -13.3330    3.7170  -13.8330 C   0  0  0  0  0  0  0  0  0  0  0  0
  -13.9470    4.5630  -14.4810 O   0  0  0  0  0  0  0  0  0  0  0  0
  -11.9750    3.3470  -13.9740 N   0  0  0  0  0  0  0  0  0  0  0  0
  -11.1640    3.9590  -15.0070 C   0  0  0  0  0  0  0  0  0  0  0  0
  -11.4380    5.2440  -15.5010 C   0  0  0  0  0  0  0  0  0  0  0  0
  -10.6580    5.8200  -16.5120 C   0  0  0  0  0  0  0  0  0  0  0  0
   -9.5830    5.1220  -17.0500 C   0  0  0  0  0  0  0  0  0  0  0  0
   -9.2880    3.8490  -16.5800 C   0  0  0  0  0  0  0  0  0  0  0  0
  -10.0710    3.2740  -15.5700 C   0  0  0  0  0  0  0  0  0  0  0  0
  -11.4230    2.3990  -13.1040 C   0  0  0  0  0  0  0  0  0  0  0  0
  -11.7073    1.0748  -10.1639 H   0  0  0  0  0  0  0  0  0  0  0  0
  -12.0158   -0.1984  -11.3928 H   0  0  0  0  0  0  0  0  0  0  0  0
  -10.4549    0.6905  -11.3928 H   0  0  0  0  0  0  0  0  0  0  0  0
  -14.0915    1.6640  -11.1432 H   0  0  0  0  0  0  0  0  0  0  0  0
  -15.1612    3.2696  -12.6082 H   0  0  0  0  0  0  0  0  0  0  0  0
  -12.2838    5.8111  -15.0851 H   0  0  0  0  0  0  0  0  0  0  0  0
  -10.8970    6.8282  -16.8814 H   0  0  0  0  0  0  0  0  0  0  0  0
   -8.9699    5.5751  -17.8430 H   0  0  0  0  0  0  0  0  0  0  0  0
   -8.4385    3.2912  -17.0011 H   0  0  0  0  0  0  0  0  0  0  0  0
   -9.8258    2.2643  -15.2090 H   0  0  0  0  0  0  0  0  0  0  0  0
  -10.3637    2.1298  -13.2280 H   0  0  0  0  0  0  0  0  0  0  0  0
  1  2  1  0
  2  3  1  0
  3  4  2  0
  4  5  1  0
  5  6  2  0
  5  7  1  0
  7  8  1  0
  8  9  2  0
  9 10  1  0
 10 11  2  0
 11 12  1  0
 12 13  2  0
  7 14  1  0
 14  2  2  0
 13  8  1  0
  1 15  1  0
  1 16  1  0
  1 17  1  0
  3 18  1  0
  4 19  1  0
  9 20  1  0
 10 21  1  0
 11 22  1  0
 12 23  1  0
 13 24  1  0
 14 25  1  0
M  END
>  <meeko>  (8) 
{"is_sidechain": false}

>  <vina_affinity_kcal_mol>  (8) 
-6.368

>  <pose_rank>  (8) 
8

$$$$

     RDKit          3D

 25 26  0  0  0  0  0  0  0  0999 V2000
  -10.3750    7.5790  -19.6640 C   0  0  0  0  0  0  0  0  0  0  0  0
   -9.7000    6.5400  -18.8220 C   0  0  0  0  0  0  0  0  0  0  0  0
   -8.3810    6.1150  -19.2200 C   0  0  0  0  0  0  0  0  0  0  0  0
   -7.7380    5.1750  -18.5240 C   0  0  0  0  0  0  0  0  0  0  0  0
   -8.3490    4.5550  -17.3130 C   0  0  0  0  0  0  0  0  0  0  0  0
   -7.6540    3.7390  -16.7090 O   0  0  0  0  0  0  0  0  0  0  0  0
   -9.6460    5.0000  -16.9670 N   0  0  0  0  0  0  0  0  0  0  0  0
  -10.3140    4.4450  -15.8060 C   0  0  0  0  0  0  0  0  0  0  0  0
  -11.5050    4.9910  -15.3030 C   0  0  0  0  0  0  0  0  0  0  0  0
  -12.1330    4.4570  -14.1710 C   0  0  0  0  0  0  0  0  0  0  0  0
  -11.5820    3.3610  -13.5160 C   0  0  0  0  0  0  0  0  0  0  0  0
  -10.4050    2.8000  -13.9930 C   0  0  0  0  0  0  0  0  0  0  0  0
   -9.7770    3.3360  -15.1240 C   0  0  0  0  0  0  0  0  0  0  0  0
  -10.2700    5.9850  -17.7420 C   0  0  0  0  0  0  0  0  0  0  0  0
  -10.8578    8.3221  -19.0123 H   0  0  0  0  0  0  0  0  0  0  0  0
   -9.6283    8.0782  -20.2990 H   0  0  0  0  0  0  0  0  0  0  0  0
  -11.1346    7.0996  -20.2990 H   0  0  0  0  0  0  0  0  0  0  0  0
   -7.9025    6.5674  -20.1011 H   0  0  0  0  0  0  0  0  0  0  0  0
   -6.7384    4.8514  -18.8498 H   0  0  0  0  0  0  0  0  0  0  0  0
  -11.9552    5.8577  -15.8092 H   0  0  0  0  0  0  0  0  0  0  0  0
  -13.0655    4.9061  -13.7986 H   0  0  0  0  0  0  0  0  0  0  0  0
  -12.0750    2.9416  -12.6266 H   0  0  0  0  0  0  0  0  0  0  0  0
   -9.9645    1.9318  -13.4809 H   0  0  0  0  0  0  0  0  0  0  0  0
   -8.8439    2.8809  -15.4877 H   0  0  0  0  0  0  0  0  0  0  0  0
  -11.2766    6.3200  -17.4511 H   0  0  0  0  0  0  0  0  0  0  0  0
  1  2  1  0
  2  3  1  0
  3  4  2  0
  4  5  1  0
  5  6  2  0
  5  7  1  0
  7  8  1  0
  8  9  2  0
  9 10  1  0
 10 11  2  0
 11 12  1  0
 12 13  2  0
  7 14  1  0
 14  2  2  0
 13  8  1  0
  1 15  1  0
  1 16  1  0
  1 17  1  0
  3 18  1  0
  4 19  1  0
  9 20  1  0
 10 21  1  0
 11 22  1  0
 12 23  1  0
 13 24  1  0
 14 25  1  0
M  END
>  <meeko>  (9) 
{"is_sidechain": false}

>  <vina_affinity_kcal_mol>  (9) 
-6.169

>  <pose_rank>  (9) 
9

$$$$

     RDKit          3D

 25 26  0  0  0  0  0  0  0  0999 V2000
   -7.4530    2.2920  -17.0940 C   0  0  0  0  0  0  0  0  0  0  0  0
   -8.5470    3.2420  -16.7130 C   0  0  0  0  0  0  0  0  0  0  0  0
   -8.5530    4.5370  -17.3440 C   0  0  0  0  0  0  0  0  0  0  0  0
   -9.4890    5.4370  -17.0280 C   0  0  0  0  0  0  0  0  0  0  0  0
  -10.5590    5.1240  -16.0380 C   0  0  0  0  0  0  0  0  0  0  0  0
  -11.4050    5.9970  -15.8570 O   0  0  0  0  0  0  0  0  0  0  0  0
  -10.5070    3.8420  -15.4410 N   0  0  0  0  0  0  0  0  0  0  0  0
  -11.5060    3.4600  -14.4640 C   0  0  0  0  0  0  0  0  0  0  0  0
  -12.7530    4.1020  -14.3880 C   0  0  0  0  0  0  0  0  0  0  0  0
  -13.7050    3.7370  -13.4280 C   0  0  0  0  0  0  0  0  0  0  0  0
  -13.4310    2.7190  -12.5210 C   0  0  0  0  0  0  0  0  0  0  0  0
  -12.2060    2.0660  -12.5740 C   0  0  0  0  0  0  0  0  0  0  0  0
  -11.2540    2.4340  -13.5340 C   0  0  0  0  0  0  0  0  0  0  0  0
   -9.4950    2.9480  -15.8110 C   0  0  0  0  0  0  0  0  0  0  0  0
   -6.9861    1.8866  -16.1843 H   0  0  0  0  0  0  0  0  0  0  0  0
   -7.8737    1.4678  -17.6887 H   0  0  0  0  0  0  0  0  0  0  0  0
   -6.6959    2.8241  -17.6887 H   0  0  0  0  0  0  0  0  0  0  0  0
   -7.7835    4.7862  -18.0895 H   0  0  0  0  0  0  0  0  0  0  0  0
   -9.4697    6.4270  -17.5071 H   0  0  0  0  0  0  0  0  0  0  0  0
  -12.9869    4.9090  -15.0980 H   0  0  0  0  0  0  0  0  0  0  0  0
  -14.6733    4.2576  -13.3912 H   0  0  0  0  0  0  0  0  0  0  0  0
  -14.1790    2.4329  -11.7669 H   0  0  0  0  0  0  0  0  0  0  0  0
  -11.9830    1.2586  -11.8610 H   0  0  0  0  0  0  0  0  0  0  0  0
  -10.2877    1.9091  -13.5615 H   0  0  0  0  0  0  0  0  0  0  0  0
   -9.4765    1.9549  -15.3383 H   0  0  0  0  0  0  0  0  0  0  0  0
  1  2  1  0
  2  3  1  0
  3  4  2  0
  4  5  1  0
  5  6  2  0
  5  7  1  0
  7  8  1  0
  8  9  2  0
  9 10  1  0
 10 11  2  0
 11 12  1  0
 12 13  2  0
  7 14  1  0
 14  2  2  0
 13  8  1  0
  1 15  1  0
  1 16  1  0
  1 17  1  0
  3 18  1  0
  4 19  1  0
  9 20  1  0
 10 21  1  0
 11 22  1  0
 12 23  1  0
 13 24  1  0
 14 25  1  0
M  END
>  <meeko>  (10) 
{"is_sidechain": false}

>  <vina_affinity_kcal_mol>  (10) 
-6.058

>  <pose_rank>  (10) 
10

$$$$
