
     RDKit          3D

 51 54  0  0  0  0  0  0  0  0999 V2000
   -7.1735   -3.5636   -2.8412 C   0  0  0  0  0  0  0  0  0  0  0  0
   -6.2146   -3.7932   -1.8164 O   0  0  0  0  0  0  0  0  0  0  0  0
   -5.3675   -2.7691   -1.4857 C   0  0  0  0  0  0  0  0  0  0  0  0
   -5.3219   -1.5485   -2.1766 C   0  0  0  0  0  0  0  0  0  0  0  0
   -4.4865   -0.5045   -1.7967 C   0  0  0  0  0  0  0  0  0  0  0  0
   -4.5071    0.6351   -2.5115 N   0  0  0  0  0  0  0  0  0  0  0  0
   -3.7101    1.6543   -2.1234 C   0  0  0  0  0  0  0  0  0  0  0  0
   -2.8610    1.5929   -1.0406 C   0  0  0  0  0  0  0  0  0  0  0  0
   -2.8247    0.4016   -0.3236 C   0  0  0  0  0  0  0  0  0  0  0  0
   -2.0164    0.2902    0.7893 O   0  0  0  0  0  0  0  0  0  0  0  0
   -0.6634    0.4568    0.5940 C   0  0  0  0  0  0  0  0  0  0  0  0
    0.0250    1.1787    1.5672 C   0  0  0  0  0  0  0  0  0  0  0  0
    1.4071    1.3717    1.4604 C   0  0  0  0  0  0  0  0  0  0  0  0
    2.1178    0.8319    0.3853 C   0  0  0  0  0  0  0  0  0  0  0  0
    3.5150    0.9875    0.2164 N   0  0  0  0  0  0  0  0  0  0  0  0
    4.3985    1.7185    0.9908 C   0  0  0  0  0  0  0  0  0  0  0  0
    4.0864    2.3923    1.9650 O   0  0  0  0  0  0  0  0  0  0  0  0
    5.6867    1.5924    0.5174 N   0  0  0  0  0  0  0  0  0  0  0  0
    6.7989    2.2018    1.0554 C   0  0  0  0  0  0  0  0  0  0  0  0
    6.9048    3.0831    2.1532 C   0  0  0  0  0  0  0  0  0  0  0  0
    8.2436    3.3736    2.2360 C   0  0  0  0  0  0  0  0  0  0  0  0
    9.0626    4.2116    3.1276 C   0  0  0  0  0  0  0  0  0  0  0  0
    8.9036    2.7110    1.2507 O   0  0  0  0  0  0  0  0  0  0  0  0
    7.9989    1.9752    0.5080 N   0  0  0  0  0  0  0  0  0  0  0  0
    1.4097    0.0821   -0.5756 C   0  0  0  0  0  0  0  0  0  0  0  0
    2.2313   -0.6318   -1.9248 Cl  0  0  0  0  0  0  0  0  0  0  0  0
    0.0300   -0.1117   -0.4733 C   0  0  0  0  0  0  0  0  0  0  0  0
   -3.6579   -0.6774   -0.6759 C   0  0  0  0  0  0  0  0  0  0  0  0
   -3.6898   -1.9005    0.0229 C   0  0  0  0  0  0  0  0  0  0  0  0
   -4.5184   -2.9504   -0.3858 C   0  0  0  0  0  0  0  0  0  0  0  0
   -4.4185   -4.0595    0.4132 O   0  0  0  0  0  0  0  0  0  0  0  0
   -4.6362   -5.3192   -0.2110 C   0  0  0  0  0  0  0  0  0  0  0  0
   -6.6849   -3.4108   -3.8090 H   0  0  0  0  0  0  0  0  0  0  0  0
   -7.7954   -4.4603   -2.9222 H   0  0  0  0  0  0  0  0  0  0  0  0
   -7.8312   -2.7251   -2.5896 H   0  0  0  0  0  0  0  0  0  0  0  0
   -5.9514   -1.3685   -3.0427 H   0  0  0  0  0  0  0  0  0  0  0  0
   -3.7823    2.5534   -2.7291 H   0  0  0  0  0  0  0  0  0  0  0  0
   -2.2532    2.4455   -0.7628 H   0  0  0  0  0  0  0  0  0  0  0  0
   -0.5118    1.5986    2.4151 H   0  0  0  0  0  0  0  0  0  0  0  0
    1.8963    1.9438    2.2428 H   0  0  0  0  0  0  0  0  0  0  0  0
    3.8919    0.5324   -0.6050 H   0  0  0  0  0  0  0  0  0  0  0  0
    5.8951    0.9940   -0.2651 H   0  0  0  0  0  0  0  0  0  0  0  0
    6.1224    3.4567    2.7965 H   0  0  0  0  0  0  0  0  0  0  0  0
    8.4430    4.7019    3.8848 H   0  0  0  0  0  0  0  0  0  0  0  0
    9.5799    4.9884    2.5562 H   0  0  0  0  0  0  0  0  0  0  0  0
    9.8129    3.6043    3.6430 H   0  0  0  0  0  0  0  0  0  0  0  0
   -0.4901   -0.7098   -1.2159 H   0  0  0  0  0  0  0  0  0  0  0  0
   -3.0547   -2.0475    0.8946 H   0  0  0  0  0  0  0  0  0  0  0  0
   -4.2048   -5.3659   -1.2169 H   0  0  0  0  0  0  0  0  0  0  0  0
   -5.7019   -5.5654   -0.2178 H   0  0  0  0  0  0  0  0  0  0  0  0
   -4.1322   -6.0784    0.3955 H   0  0  0  0  0  0  0  0  0  0  0  0
  1  2  1  0
  2  3  1  0
  3  4  1  0
  4  5  2  0
  5  6  1  0
  6  7  2  0
  7  8  1  0
  8  9  2  0
  9 10  1  0
 10 11  1  0
 11 12  1  0
 12 13  2  0
 13 14  1  0
 14 15  1  0
 15 16  1  0
 16 17  2  0
 16 18  1  0
 18 19  1  0
 19 20  1  0
 20 21  2  0
 21 22  1  0
 21 23  1  0
 23 24  1  0
 14 25  2  0
 25 26  1  0
 25 27  1  0
  9 28  1  0
 28 29  2  0
 29 30  1  0
 30 31  1  0
 31 32  1  0
 30  3  2  0
 28  5  1  0
 27 11  2  0
 24 19  2  0
  1 33  1  0
  1 34  1  0
  1 35  1  0
  4 36  1  0
  7 37  1  0
  8 38  1  0
 12 39  1  0
 13 40  1  0
 15 41  1  0
 18 42  1  0
 20 43  1  0
 22 44  1  0
 22 45  1  0
 22 46  1  0
 27 47  1  0
 29 48  1  0
 32 49  1  0
 32 50  1  0
 32 51  1  0
M  END
$$$$
