
     RDKit          3D

 51 54  0  0  0  0  0  0  0  0999 V2000
  -38.6200  165.4630   -8.2240 C   0  0  0  0  0  0  0  0  0  0  0  0
  -37.5770  164.7980   -7.5240 O   0  0  0  0  0  0  0  0  0  0  0  0
  -37.9030  164.1060   -6.3880 C   0  0  0  0  0  0  0  0  0  0  0  0
  -37.9800  164.6960   -5.1170 C   0  0  0  0  0  0  0  0  0  0  0  0
  -38.3580  163.9850   -3.9840 C   0  0  0  0  0  0  0  0  0  0  0  0
  -38.4110  164.6280   -2.8030 N   0  0  0  0  0  0  0  0  0  0  0  0
  -38.8020  163.9370   -1.7100 C   0  0  0  0  0  0  0  0  0  0  0  0
  -39.1370  162.6020   -1.7270 C   0  0  0  0  0  0  0  0  0  0  0  0
  -39.0520  161.9370   -2.9460 C   0  0  0  0  0  0  0  0  0  0  0  0
  -39.4040  160.6050   -3.0320 O   0  0  0  0  0  0  0  0  0  0  0  0
  -39.3940  159.8820   -1.8610 C   0  0  0  0  0  0  0  0  0  0  0  0
  -38.2990  159.0450   -1.6520 C   0  0  0  0  0  0  0  0  0  0  0  0
  -38.1960  158.2950   -0.4750 C   0  0  0  0  0  0  0  0  0  0  0  0
  -39.1810  158.3850    0.5120 C   0  0  0  0  0  0  0  0  0  0  0  0
  -39.1390  157.6570    1.7260 N   0  0  0  0  0  0  0  0  0  0  0  0
  -38.0930  157.5450    2.6250 C   0  0  0  0  0  0  0  0  0  0  0  0
  -36.9890  158.0590    2.4860 O   0  0  0  0  0  0  0  0  0  0  0  0
  -38.4550  156.7690    3.7050 N   0  0  0  0  0  0  0  0  0  0  0  0
  -37.6410  156.4530    4.7710 C   0  0  0  0  0  0  0  0  0  0  0  0
  -37.2350  155.1910    5.2560 C   0  0  0  0  0  0  0  0  0  0  0  0
  -36.4320  155.4750    6.3320 C   0  0  0  0  0  0  0  0  0  0  0  0
  -35.6760  154.6590    7.2980 C   0  0  0  0  0  0  0  0  0  0  0  0
  -36.3580  156.8230    6.4870 O   0  0  0  0  0  0  0  0  0  0  0  0
  -37.1170  157.4380    5.5090 N   0  0  0  0  0  0  0  0  0  0  0  0
  -40.2680  159.2560    0.2960 C   0  0  0  0  0  0  0  0  0  0  0  0
  -41.5160  159.4300    1.4860 Cl  0  0  0  0  0  0  0  0  0  0  0  0
  -40.3750  160.0060   -0.8790 C   0  0  0  0  0  0  0  0  0  0  0  0
  -38.6770  162.6230   -4.1160 C   0  0  0  0  0  0  0  0  0  0  0  0
  -38.5970  162.0170   -5.3860 C   0  0  0  0  0  0  0  0  0  0  0  0
  -38.1920  162.7400   -6.5130 C   0  0  0  0  0  0  0  0  0  0  0  0
  -38.1750  161.9880   -7.6590 O   0  0  0  0  0  0  0  0  0  0  0  0
  -36.9580  161.3180   -7.9670 C   0  0  0  0  0  0  0  0  0  0  0  0
  -39.3198  165.9091   -7.5020 H   0  0  0  0  0  0  0  0  0  0  0  0
  -38.1909  166.2546   -8.8559 H   0  0  0  0  0  0  0  0  0  0  0  0
  -39.1566  164.7399   -8.8559 H   0  0  0  0  0  0  0  0  0  0  0  0
  -37.7316  165.7626   -5.0134 H   0  0  0  0  0  0  0  0  0  0  0  0
  -38.8558  164.4724   -0.7506 H   0  0  0  0  0  0  0  0  0  0  0  0
  -39.4591  162.0816   -0.8130 H   0  0  0  0  0  0  0  0  0  0  0  0
  -37.5114  158.9736   -2.4166 H   0  0  0  0  0  0  0  0  0  0  0  0
  -37.3330  157.6295   -0.3257 H   0  0  0  0  0  0  0  0  0  0  0  0
  -39.9750  157.1220    1.9250 H   0  0  0  0  0  0  0  0  0  0  0  0
  -39.3880  156.4010    3.7890 H   0  0  0  0  0  0  0  0  0  0  0  0
  -37.5027  154.2004    4.8597 H   0  0  0  0  0  0  0  0  0  0  0  0
  -35.9500  154.9547    8.3215 H   0  0  0  0  0  0  0  0  0  0  0  0
  -35.9156  153.5961    7.1469 H   0  0  0  0  0  0  0  0  0  0  0  0
  -34.5979  154.8169    7.1469 H   0  0  0  0  0  0  0  0  0  0  0  0
  -41.2256  160.6876   -1.0270 H   0  0  0  0  0  0  0  0  0  0  0  0
  -38.8584  160.9539   -5.4931 H   0  0  0  0  0  0  0  0  0  0  0  0
  -36.4478  161.0371   -7.0339 H   0  0  0  0  0  0  0  0  0  0  0  0
  -37.1759  160.4127   -8.5526 H   0  0  0  0  0  0  0  0  0  0  0  0
  -36.3096  161.9863   -8.5526 H   0  0  0  0  0  0  0  0  0  0  0  0
  1  2  1  0
  2  3  1  0
  3  4  1  0
  4  5  2  0
  5  6  1  0
  6  7  2  0
  7  8  1  0
  8  9  2  0
  9 10  1  0
 10 11  1  0
 11 12  1  0
 12 13  2  0
 13 14  1  0
 14 15  1  0
 15 16  1  0
 16 17  2  0
 16 18  1  0
 18 19  1  0
 19 20  1  0
 20 21  2  0
 21 22  1  0
 21 23  1  0
 23 24  1  0
 14 25  2  0
 25 26  1  0
 25 27  1  0
  9 28  1  0
 28 29  2  0
 29 30  1  0
 30 31  1  0
 31 32  1  0
 30  3  2  0
 28  5  1  0
 27 11  2  0
 24 19  2  0
  1 33  1  0
  1 34  1  0
  1 35  1  0
  4 36  1  0
  7 37  1  0
  8 38  1  0
 12 39  1  0
 13 40  1  0
 15 41  1  0
 18 42  1  0
 20 43  1  0
 22 44  1  0
 22 45  1  0
 22 46  1  0
 27 47  1  0
 29 48  1  0
 32 49  1  0
 32 50  1  0
 32 51  1  0
M  END
>  <meeko>  (1) 
{"is_sidechain": false}

>  <vina_affinity_kcal_mol>  (1) 
-10.687

>  <pose_rank>  (1) 
1

$$$$

     RDKit          3D

 51 54  0  0  0  0  0  0  0  0999 V2000
  -38.3570  165.7900   -8.8960 C   0  0  0  0  0  0  0  0  0  0  0  0
  -37.4850  164.7550   -8.4630 O   0  0  0  0  0  0  0  0  0  0  0  0
  -37.7860  164.1050   -7.2950 C   0  0  0  0  0  0  0  0  0  0  0  0
  -37.9330  164.7580   -6.0620 C   0  0  0  0  0  0  0  0  0  0  0  0
  -38.2850  164.0860   -4.8980 C   0  0  0  0  0  0  0  0  0  0  0  0
  -38.4100  164.7880   -3.7560 N   0  0  0  0  0  0  0  0  0  0  0  0
  -38.7740  164.1320   -2.6330 C   0  0  0  0  0  0  0  0  0  0  0  0
  -39.0140  162.7770   -2.5800 C   0  0  0  0  0  0  0  0  0  0  0  0
  -38.8550  162.0540   -3.7570 C   0  0  0  0  0  0  0  0  0  0  0  0
  -39.1100  160.6980   -3.7740 O   0  0  0  0  0  0  0  0  0  0  0  0
  -39.1940  160.0650   -2.5530 C   0  0  0  0  0  0  0  0  0  0  0  0
  -38.2400  159.0840   -2.2900 C   0  0  0  0  0  0  0  0  0  0  0  0
  -38.2370  158.4120   -1.0620 C   0  0  0  0  0  0  0  0  0  0  0  0
  -39.1800  158.7240   -0.0800 C   0  0  0  0  0  0  0  0  0  0  0  0
  -39.2330  158.0850    1.1830 N   0  0  0  0  0  0  0  0  0  0  0  0
  -38.2190  157.9330    2.1130 C   0  0  0  0  0  0  0  0  0  0  0  0
  -37.0670  158.3220    1.9640 O   0  0  0  0  0  0  0  0  0  0  0  0
  -38.6770  157.2780    3.2360 N   0  0  0  0  0  0  0  0  0  0  0  0
  -37.9170  156.9600    4.3400 C   0  0  0  0  0  0  0  0  0  0  0  0
  -37.1150  157.7880    5.1550 C   0  0  0  0  0  0  0  0  0  0  0  0
  -36.5940  156.9410    6.1020 C   0  0  0  0  0  0  0  0  0  0  0  0
  -35.6890  157.1130    7.2510 C   0  0  0  0  0  0  0  0  0  0  0  0
  -37.0520  155.6830    5.8730 O   0  0  0  0  0  0  0  0  0  0  0  0
  -37.8830  155.6920    4.7670 N   0  0  0  0  0  0  0  0  0  0  0  0
  -40.1210  159.7370   -0.3530 C   0  0  0  0  0  0  0  0  0  0  0  0
  -41.3080  160.1880    0.8270 Cl  0  0  0  0  0  0  0  0  0  0  0  0
  -40.1280  160.4100   -1.5780 C   0  0  0  0  0  0  0  0  0  0  0  0
  -38.5030  162.6990   -4.9570 C   0  0  0  0  0  0  0  0  0  0  0  0
  -38.3520  162.0310   -6.1890 C   0  0  0  0  0  0  0  0  0  0  0  0
  -37.9740  162.7170   -7.3470 C   0  0  0  0  0  0  0  0  0  0  0  0
  -37.8790  161.9060   -8.4480 O   0  0  0  0  0  0  0  0  0  0  0  0
  -36.7730  161.0130   -8.4910 C   0  0  0  0  0  0  0  0  0  0  0  0
  -38.7856  166.2988   -8.0200 H   0  0  0  0  0  0  0  0  0  0  0  0
  -37.7933  166.5149   -9.5016 H   0  0  0  0  0  0  0  0  0  0  0  0
  -39.1671  165.3575   -9.5016 H   0  0  0  0  0  0  0  0  0  0  0  0
  -37.7630  165.8438   -6.0150 H   0  0  0  0  0  0  0  0  0  0  0  0
  -38.8853  164.7142   -1.7063 H   0  0  0  0  0  0  0  0  0  0  0  0
  -39.3193  162.2863   -1.6440 H   0  0  0  0  0  0  0  0  0  0  0  0
  -37.4855  158.8364   -3.0512 H   0  0  0  0  0  0  0  0  0  0  0  0
  -37.4859  157.6319   -0.8688 H   0  0  0  0  0  0  0  0  0  0  0  0
  -40.1220  157.6540    1.3980 H   0  0  0  0  0  0  0  0  0  0  0  0
  -39.6440  157.0140    3.3230 H   0  0  0  0  0  0  0  0  0  0  0  0
  -36.9453  158.8701    5.0540 H   0  0  0  0  0  0  0  0  0  0  0  0
  -36.2586  157.0047    8.1858 H   0  0  0  0  0  0  0  0  0  0  0  0
  -34.8985  156.3490    7.2127 H   0  0  0  0  0  0  0  0  0  0  0  0
  -35.2339  158.1137    7.2127 H   0  0  0  0  0  0  0  0  0  0  0  0
  -40.8639  161.2046   -1.7707 H   0  0  0  0  0  0  0  0  0  0  0  0
  -38.5354  160.9476   -6.2403 H   0  0  0  0  0  0  0  0  0  0  0  0
  -36.4635  160.7631   -7.4655 H   0  0  0  0  0  0  0  0  0  0  0  0
  -37.0643  160.0938   -9.0204 H   0  0  0  0  0  0  0  0  0  0  0  0
  -35.9358  161.4914   -9.0204 H   0  0  0  0  0  0  0  0  0  0  0  0
  1  2  1  0
  2  3  1  0
  3  4  1  0
  4  5  2  0
  5  6  1  0
  6  7  2  0
  7  8  1  0
  8  9  2  0
  9 10  1  0
 10 11  1  0
 11 12  1  0
 12 13  2  0
 13 14  1  0
 14 15  1  0
 15 16  1  0
 16 17  2  0
 16 18  1  0
 18 19  1  0
 19 20  1  0
 20 21  2  0
 21 22  1  0
 21 23  1  0
 23 24  1  0
 14 25  2  0
 25 26  1  0
 25 27  1  0
  9 28  1  0
 28 29  2  0
 29 30  1  0
 30 31  1  0
 31 32  1  0
 30  3  2  0
 28  5  1  0
 27 11  2  0
 24 19  2  0
  1 33  1  0
  1 34  1  0
  1 35  1  0
  4 36  1  0
  7 37  1  0
  8 38  1  0
 12 39  1  0
 13 40  1  0
 15 41  1  0
 18 42  1  0
 20 43  1  0
 22 44  1  0
 22 45  1  0
 22 46  1  0
 27 47  1  0
 29 48  1  0
 32 49  1  0
 32 50  1  0
 32 51  1  0
M  END
>  <meeko>  (2) 
{"is_sidechain": false}

>  <vina_affinity_kcal_mol>  (2) 
-10.321

>  <pose_rank>  (2) 
2

$$$$

     RDKit          3D

 51 54  0  0  0  0  0  0  0  0999 V2000
  -38.4330  156.9340  -11.8530 C   0  0  0  0  0  0  0  0  0  0  0  0
  -37.3390  157.7970  -12.1370 O   0  0  0  0  0  0  0  0  0  0  0  0
  -37.2550  158.9780  -11.4490 C   0  0  0  0  0  0  0  0  0  0  0  0
  -37.8980  160.1570  -11.8550 C   0  0  0  0  0  0  0  0  0  0  0  0
  -37.8380  161.3340  -11.1170 C   0  0  0  0  0  0  0  0  0  0  0  0
  -38.4880  162.4200  -11.5750 N   0  0  0  0  0  0  0  0  0  0  0  0
  -38.4440  163.5540  -10.8410 C   0  0  0  0  0  0  0  0  0  0  0  0
  -37.7600  163.6720   -9.6520 C   0  0  0  0  0  0  0  0  0  0  0  0
  -37.0680  162.5530   -9.2000 C   0  0  0  0  0  0  0  0  0  0  0  0
  -36.3870  162.6000   -8.0000 O   0  0  0  0  0  0  0  0  0  0  0  0
  -37.1450  162.5310   -6.8520 C   0  0  0  0  0  0  0  0  0  0  0  0
  -37.8150  161.3330   -6.6160 C   0  0  0  0  0  0  0  0  0  0  0  0
  -38.5850  161.1690   -5.4590 C   0  0  0  0  0  0  0  0  0  0  0  0
  -38.6820  162.1980   -4.5180 C   0  0  0  0  0  0  0  0  0  0  0  0
  -39.4410  162.1000   -3.3280 N   0  0  0  0  0  0  0  0  0  0  0  0
  -39.3130  161.1800   -2.3000 C   0  0  0  0  0  0  0  0  0  0  0  0
  -38.5070  160.2580   -2.2810 O   0  0  0  0  0  0  0  0  0  0  0  0
  -40.2220  161.4370   -1.2960 N   0  0  0  0  0  0  0  0  0  0  0  0
  -40.3630  160.7010   -0.1400 C   0  0  0  0  0  0  0  0  0  0  0  0
  -41.4120  159.8490    0.2660 C   0  0  0  0  0  0  0  0  0  0  0  0
  -41.0240  159.3850    1.4990 C   0  0  0  0  0  0  0  0  0  0  0  0
  -41.6180  158.4720    2.4900 C   0  0  0  0  0  0  0  0  0  0  0  0
  -39.8180  159.9240    1.8160 O   0  0  0  0  0  0  0  0  0  0  0  0
  -39.4010  160.7510    0.7890 N   0  0  0  0  0  0  0  0  0  0  0  0
  -37.9760  163.3940   -4.7610 C   0  0  0  0  0  0  0  0  0  0  0  0
  -38.0360  164.7050   -3.6290 Cl  0  0  0  0  0  0  0  0  0  0  0  0
  -37.2070  163.5620   -5.9160 C   0  0  0  0  0  0  0  0  0  0  0  0
  -37.1070  161.3420   -9.9180 C   0  0  0  0  0  0  0  0  0  0  0  0
  -36.4510  160.1660   -9.5020 C   0  0  0  0  0  0  0  0  0  0  0  0
  -36.5010  158.9970  -10.2680 C   0  0  0  0  0  0  0  0  0  0  0  0
  -35.8080  157.9560   -9.7080 O   0  0  0  0  0  0  0  0  0  0  0  0
  -34.6250  157.5400  -10.3800 C   0  0  0  0  0  0  0  0  0  0  0  0
  -38.5525  156.8398  -10.7636 H   0  0  0  0  0  0  0  0  0  0  0  0
  -39.3526  157.3525  -12.2879 H   0  0  0  0  0  0  0  0  0  0  0  0
  -38.2401  155.9422  -12.2879 H   0  0  0  0  0  0  0  0  0  0  0  0
  -38.4718  160.1500  -12.7935 H   0  0  0  0  0  0  0  0  0  0  0  0
  -38.9866  164.4345  -11.2156 H   0  0  0  0  0  0  0  0  0  0  0  0
  -37.7606  164.6131   -9.0824 H   0  0  0  0  0  0  0  0  0  0  0  0
  -37.7385  160.5111   -7.3431 H   0  0  0  0  0  0  0  0  0  0  0  0
  -39.1185  160.2222   -5.2887 H   0  0  0  0  0  0  0  0  0  0  0  0
  -40.1950  162.7690   -3.2530 H   0  0  0  0  0  0  0  0  0  0  0  0
  -40.8360  162.2330   -1.3450 H   0  0  0  0  0  0  0  0  0  0  0  0
  -42.3348  159.6098   -0.2828 H   0  0  0  0  0  0  0  0  0  0  0  0
  -41.3853  158.8297    3.5039 H   0  0  0  0  0  0  0  0  0  0  0  0
  -42.7090  158.4420    2.3532 H   0  0  0  0  0  0  0  0  0  0  0  0
  -41.2034  157.4624    2.3532 H   0  0  0  0  0  0  0  0  0  0  0  0
  -36.6560  164.4989   -6.0847 H   0  0  0  0  0  0  0  0  0  0  0  0
  -35.8888  160.1677   -8.5565 H   0  0  0  0  0  0  0  0  0  0  0  0
  -33.8580  157.2703   -9.6391 H   0  0  0  0  0  0  0  0  0  0  0  0
  -34.8491  156.6667  -11.0102 H   0  0  0  0  0  0  0  0  0  0  0  0
  -34.2532  158.3613  -11.0102 H   0  0  0  0  0  0  0  0  0  0  0  0
  1  2  1  0
  2  3  1  0
  3  4  1  0
  4  5  2  0
  5  6  1  0
  6  7  2  0
  7  8  1  0
  8  9  2  0
  9 10  1  0
 10 11  1  0
 11 12  1  0
 12 13  2  0
 13 14  1  0
 14 15  1  0
 15 16  1  0
 16 17  2  0
 16 18  1  0
 18 19  1  0
 19 20  1  0
 20 21  2  0
 21 22  1  0
 21 23  1  0
 23 24  1  0
 14 25  2  0
 25 26  1  0
 25 27  1  0
  9 28  1  0
 28 29  2  0
 29 30  1  0
 30 31  1  0
 31 32  1  0
 30  3  2  0
 28  5  1  0
 27 11  2  0
 24 19  2  0
  1 33  1  0
  1 34  1  0
  1 35  1  0
  4 36  1  0
  7 37  1  0
  8 38  1  0
 12 39  1  0
 13 40  1  0
 15 41  1  0
 18 42  1  0
 20 43  1  0
 22 44  1  0
 22 45  1  0
 22 46  1  0
 27 47  1  0
 29 48  1  0
 32 49  1  0
 32 50  1  0
 32 51  1  0
M  END
>  <meeko>  (3) 
{"is_sidechain": false}

>  <vina_affinity_kcal_mol>  (3) 
-9.627

>  <pose_rank>  (3) 
3

$$$$

     RDKit          3D

 51 54  0  0  0  0  0  0  0  0999 V2000
  -33.7240  152.3610    6.2450 C   0  0  0  0  0  0  0  0  0  0  0  0
  -35.0870  152.3620    5.8410 O   0  0  0  0  0  0  0  0  0  0  0  0
  -35.6660  153.5640    5.5340 C   0  0  0  0  0  0  0  0  0  0  0  0
  -34.9900  154.7910    5.6080 C   0  0  0  0  0  0  0  0  0  0  0  0
  -35.5830  155.9950    5.2480 C   0  0  0  0  0  0  0  0  0  0  0  0
  -34.8620  157.1280    5.3440 N   0  0  0  0  0  0  0  0  0  0  0  0
  -35.4370  158.2910    4.9700 C   0  0  0  0  0  0  0  0  0  0  0  0
  -36.7300  158.3940    4.5070 C   0  0  0  0  0  0  0  0  0  0  0  0
  -37.4770  157.2230    4.4370 C   0  0  0  0  0  0  0  0  0  0  0  0
  -38.7700  157.2570    3.9530 O   0  0  0  0  0  0  0  0  0  0  0  0
  -38.9780  157.9570    2.7850 C   0  0  0  0  0  0  0  0  0  0  0  0
  -37.9390  157.9480    1.8560 C   0  0  0  0  0  0  0  0  0  0  0  0
  -38.0790  158.6110    0.6320 C   0  0  0  0  0  0  0  0  0  0  0  0
  -39.2660  159.2780    0.3170 C   0  0  0  0  0  0  0  0  0  0  0  0
  -39.4750  159.9670   -0.9020 N   0  0  0  0  0  0  0  0  0  0  0  0
  -38.9760  161.1980   -1.2910 C   0  0  0  0  0  0  0  0  0  0  0  0
  -38.2690  161.9190   -0.5970 O   0  0  0  0  0  0  0  0  0  0  0  0
  -39.3840  161.5110   -2.5700 N   0  0  0  0  0  0  0  0  0  0  0  0
  -39.0690  162.6690   -3.2470 C   0  0  0  0  0  0  0  0  0  0  0  0
  -38.8110  162.8720   -4.6200 C   0  0  0  0  0  0  0  0  0  0  0  0
  -38.5560  164.2160   -4.7290 C   0  0  0  0  0  0  0  0  0  0  0  0
  -38.2170  165.1130   -5.8470 C   0  0  0  0  0  0  0  0  0  0  0  0
  -38.6530  164.7880   -3.5010 O   0  0  0  0  0  0  0  0  0  0  0  0
  -38.9750  163.8180   -2.5690 N   0  0  0  0  0  0  0  0  0  0  0  0
  -40.3160  159.2540    1.2580 C   0  0  0  0  0  0  0  0  0  0  0  0
  -41.8220  160.0450    0.9260 Cl  0  0  0  0  0  0  0  0  0  0  0  0
  -40.1800  158.5940    2.4820 C   0  0  0  0  0  0  0  0  0  0  0  0
  -36.9110  155.9840    4.7900 C   0  0  0  0  0  0  0  0  0  0  0  0
  -37.6040  154.7590    4.7180 C   0  0  0  0  0  0  0  0  0  0  0  0
  -37.0010  153.5580    5.1060 C   0  0  0  0  0  0  0  0  0  0  0  0
  -37.8240  152.4710    4.9660 O   0  0  0  0  0  0  0  0  0  0  0  0
  -38.3680  151.9220    6.1610 C   0  0  0  0  0  0  0  0  0  0  0  0
  -33.6672  152.3610    7.3435 H   0  0  0  0  0  0  0  0  0  0  0  0
  -33.2257  151.4625    5.8520 H   0  0  0  0  0  0  0  0  0  0  0  0
  -33.2244  153.2588    5.8520 H   0  0  0  0  0  0  0  0  0  0  0  0
  -33.9496  154.8004    5.9650 H   0  0  0  0  0  0  0  0  0  0  0  0
  -34.8373  159.2106    5.0392 H   0  0  0  0  0  0  0  0  0  0  0  0
  -37.1545  159.3628    4.2049 H   0  0  0  0  0  0  0  0  0  0  0  0
  -37.0038  157.4167    2.0865 H   0  0  0  0  0  0  0  0  0  0  0  0
  -37.2478  158.6072   -0.0885 H   0  0  0  0  0  0  0  0  0  0  0  0
  -40.1070  159.5040   -1.5430 H   0  0  0  0  0  0  0  0  0  0  0  0
  -39.9320  160.8640   -3.1110 H   0  0  0  0  0  0  0  0  0  0  0  0
  -38.8138  162.1205   -5.4233 H   0  0  0  0  0  0  0  0  0  0  0  0
  -37.8543  166.0727   -5.4501 H   0  0  0  0  0  0  0  0  0  0  0  0
  -37.4316  164.6506   -6.4629 H   0  0  0  0  0  0  0  0  0  0  0  0
  -39.1119  165.2856   -6.4629 H   0  0  0  0  0  0  0  0  0  0  0  0
  -41.0136  158.5773    3.1995 H   0  0  0  0  0  0  0  0  0  0  0  0
  -38.6402  154.7471    4.3492 H   0  0  0  0  0  0  0  0  0  0  0  0
  -37.8952  152.3991    7.0321 H   0  0  0  0  0  0  0  0  0  0  0  0
  -39.4526  152.1034    6.1873 H   0  0  0  0  0  0  0  0  0  0  0  0
  -38.1767  150.8391    6.1873 H   0  0  0  0  0  0  0  0  0  0  0  0
  1  2  1  0
  2  3  1  0
  3  4  1  0
  4  5  2  0
  5  6  1  0
  6  7  2  0
  7  8  1  0
  8  9  2  0
  9 10  1  0
 10 11  1  0
 11 12  1  0
 12 13  2  0
 13 14  1  0
 14 15  1  0
 15 16  1  0
 16 17  2  0
 16 18  1  0
 18 19  1  0
 19 20  1  0
 20 21  2  0
 21 22  1  0
 21 23  1  0
 23 24  1  0
 14 25  2  0
 25 26  1  0
 25 27  1  0
  9 28  1  0
 28 29  2  0
 29 30  1  0
 30 31  1  0
 31 32  1  0
 30  3  2  0
 28  5  1  0
 27 11  2  0
 24 19  2  0
  1 33  1  0
  1 34  1  0
  1 35  1  0
  4 36  1  0
  7 37  1  0
  8 38  1  0
 12 39  1  0
 13 40  1  0
 15 41  1  0
 18 42  1  0
 20 43  1  0
 22 44  1  0
 22 45  1  0
 22 46  1  0
 27 47  1  0
 29 48  1  0
 32 49  1  0
 32 50  1  0
 32 51  1  0
M  END
>  <meeko>  (4) 
{"is_sidechain": false}

>  <vina_affinity_kcal_mol>  (4) 
-9.512

>  <pose_rank>  (4) 
4

$$$$

     RDKit          3D

 51 54  0  0  0  0  0  0  0  0999 V2000
  -37.9670  147.5890    3.3990 C   0  0  0  0  0  0  0  0  0  0  0  0
  -38.1620  147.8580    4.7810 O   0  0  0  0  0  0  0  0  0  0  0  0
  -37.7310  149.0630    5.2690 C   0  0  0  0  0  0  0  0  0  0  0  0
  -36.3820  149.3630    5.5090 C   0  0  0  0  0  0  0  0  0  0  0  0
  -35.9620  150.6080    5.9610 C   0  0  0  0  0  0  0  0  0  0  0  0
  -34.6480  150.8160    6.1620 N   0  0  0  0  0  0  0  0  0  0  0  0
  -34.2440  152.0360    6.5790 C   0  0  0  0  0  0  0  0  0  0  0  0
  -35.1020  153.0840    6.8280 C   0  0  0  0  0  0  0  0  0  0  0  0
  -36.4610  152.8530    6.6450 C   0  0  0  0  0  0  0  0  0  0  0  0
  -37.3690  153.8730    6.8490 O   0  0  0  0  0  0  0  0  0  0  0  0
  -37.3310  154.9260    5.9620 C   0  0  0  0  0  0  0  0  0  0  0  0
  -37.6750  154.6450    4.6420 C   0  0  0  0  0  0  0  0  0  0  0  0
  -37.6880  155.6630    3.6820 C   0  0  0  0  0  0  0  0  0  0  0  0
  -37.3720  156.9770    4.0370 C   0  0  0  0  0  0  0  0  0  0  0  0
  -37.3680  158.0550    3.1180 N   0  0  0  0  0  0  0  0  0  0  0  0
  -38.2400  158.2940    2.0700 C   0  0  0  0  0  0  0  0  0  0  0  0
  -39.1690  157.5630    1.7500 O   0  0  0  0  0  0  0  0  0  0  0  0
  -37.9200  159.4700    1.4250 N   0  0  0  0  0  0  0  0  0  0  0  0
  -38.5840  159.9880    0.3350 C   0  0  0  0  0  0  0  0  0  0  0  0
  -38.2110  160.0050   -1.0270 C   0  0  0  0  0  0  0  0  0  0  0  0
  -39.2460  160.6470   -1.6610 C   0  0  0  0  0  0  0  0  0  0  0  0
  -39.5280  161.0130   -3.0600 C   0  0  0  0  0  0  0  0  0  0  0  0
  -40.1830  160.9950   -0.7420 O   0  0  0  0  0  0  0  0  0  0  0  0
  -39.7700  160.5830    0.5120 N   0  0  0  0  0  0  0  0  0  0  0  0
  -37.0520  157.2480    5.3820 C   0  0  0  0  0  0  0  0  0  0  0  0
  -36.6670  158.8580    5.8960 Cl  0  0  0  0  0  0  0  0  0  0  0  0
  -37.0360  156.2340    6.3430 C   0  0  0  0  0  0  0  0  0  0  0  0
  -36.9250  151.6060    6.1850 C   0  0  0  0  0  0  0  0  0  0  0  0
  -38.2850  151.3150    5.9540 C   0  0  0  0  0  0  0  0  0  0  0  0
  -38.6940  150.0490    5.5220 C   0  0  0  0  0  0  0  0  0  0  0  0
  -40.0500  149.9510    5.3490 O   0  0  0  0  0  0  0  0  0  0  0  0
  -40.5640  150.3440    4.0820 C   0  0  0  0  0  0  0  0  0  0  0  0
  -37.3249  146.7032    3.2849 H   0  0  0  0  0  0  0  0  0  0  0  0
  -38.9398  147.4007    2.9213 H   0  0  0  0  0  0  0  0  0  0  0  0
  -37.4854  148.4550    2.9213 H   0  0  0  0  0  0  0  0  0  0  0  0
  -35.6273  148.5824    5.3326 H   0  0  0  0  0  0  0  0  0  0  0  0
  -33.1669  152.2018    6.7283 H   0  0  0  0  0  0  0  0  0  0  0  0
  -34.7275  154.0641    7.1583 H   0  0  0  0  0  0  0  0  0  0  0  0
  -37.9380  153.6169    4.3524 H   0  0  0  0  0  0  0  0  0  0  0  0
  -37.9490  155.4270    2.6398 H   0  0  0  0  0  0  0  0  0  0  0  0
  -36.5970  158.7000    3.2310 H   0  0  0  0  0  0  0  0  0  0  0  0
  -37.1690  160.0530    1.7540 H   0  0  0  0  0  0  0  0  0  0  0  0
  -37.2956  159.5954   -1.4790 H   0  0  0  0  0  0  0  0  0  0  0  0
  -40.1992  161.8842   -3.0829 H   0  0  0  0  0  0  0  0  0  0  0  0
  -38.5862  161.2622   -3.5708 H   0  0  0  0  0  0  0  0  0  0  0  0
  -40.0091  160.1659   -3.5708 H   0  0  0  0  0  0  0  0  0  0  0  0
  -36.7929  156.4657    7.3905 H   0  0  0  0  0  0  0  0  0  0  0  0
  -39.0393  152.0989    6.1167 H   0  0  0  0  0  0  0  0  0  0  0  0
  -41.4302  151.0063    4.2271 H   0  0  0  0  0  0  0  0  0  0  0  0
  -39.7841  150.8783    3.5196 H   0  0  0  0  0  0  0  0  0  0  0  0
  -40.8751  149.4513    3.5196 H   0  0  0  0  0  0  0  0  0  0  0  0
  1  2  1  0
  2  3  1  0
  3  4  1  0
  4  5  2  0
  5  6  1  0
  6  7  2  0
  7  8  1  0
  8  9  2  0
  9 10  1  0
 10 11  1  0
 11 12  1  0
 12 13  2  0
 13 14  1  0
 14 15  1  0
 15 16  1  0
 16 17  2  0
 16 18  1  0
 18 19  1  0
 19 20  1  0
 20 21  2  0
 21 22  1  0
 21 23  1  0
 23 24  1  0
 14 25  2  0
 25 26  1  0
 25 27  1  0
  9 28  1  0
 28 29  2  0
 29 30  1  0
 30 31  1  0
 31 32  1  0
 30  3  2  0
 28  5  1  0
 27 11  2  0
 24 19  2  0
  1 33  1  0
  1 34  1  0
  1 35  1  0
  4 36  1  0
  7 37  1  0
  8 38  1  0
 12 39  1  0
 13 40  1  0
 15 41  1  0
 18 42  1  0
 20 43  1  0
 22 44  1  0
 22 45  1  0
 22 46  1  0
 27 47  1  0
 29 48  1  0
 32 49  1  0
 32 50  1  0
 32 51  1  0
M  END
>  <meeko>  (5) 
{"is_sidechain": false}

>  <vina_affinity_kcal_mol>  (5) 
-8.628

>  <pose_rank>  (5) 
5

$$$$

     RDKit          3D

 51 54  0  0  0  0  0  0  0  0999 V2000
  -35.2970  146.3080   10.8650 C   0  0  0  0  0  0  0  0  0  0  0  0
  -36.2210  147.3560   10.5990 O   0  0  0  0  0  0  0  0  0  0  0  0
  -35.8760  148.2960    9.6650 C   0  0  0  0  0  0  0  0  0  0  0  0
  -35.9880  148.0910    8.2820 C   0  0  0  0  0  0  0  0  0  0  0  0
  -35.6770  149.0750    7.3520 C   0  0  0  0  0  0  0  0  0  0  0  0
  -35.8150  148.7980    6.0420 N   0  0  0  0  0  0  0  0  0  0  0  0
  -35.5330  149.7670    5.1450 C   0  0  0  0  0  0  0  0  0  0  0  0
  -35.0950  151.0260    5.4890 C   0  0  0  0  0  0  0  0  0  0  0  0
  -34.9270  151.2960    6.8420 C   0  0  0  0  0  0  0  0  0  0  0  0
  -34.5190  152.5500    7.2510 O   0  0  0  0  0  0  0  0  0  0  0  0
  -35.1190  153.6290    6.6420 C   0  0  0  0  0  0  0  0  0  0  0  0
  -36.4880  153.7850    6.8520 C   0  0  0  0  0  0  0  0  0  0  0  0
  -37.1710  154.8700    6.2910 C   0  0  0  0  0  0  0  0  0  0  0  0
  -36.4890  155.8200    5.5260 C   0  0  0  0  0  0  0  0  0  0  0  0
  -37.1160  156.9410    4.9310 N   0  0  0  0  0  0  0  0  0  0  0  0
  -37.7410  157.0240    3.6990 C   0  0  0  0  0  0  0  0  0  0  0  0
  -37.8230  156.1060    2.8910 O   0  0  0  0  0  0  0  0  0  0  0  0
  -38.2580  158.2850    3.4950 N   0  0  0  0  0  0  0  0  0  0  0  0
  -38.9290  158.6990    2.3650 C   0  0  0  0  0  0  0  0  0  0  0  0
  -40.2860  159.0510    2.1970 C   0  0  0  0  0  0  0  0  0  0  0  0
  -40.3970  159.3820    0.8700 C   0  0  0  0  0  0  0  0  0  0  0  0
  -41.5030  159.8360    0.0100 C   0  0  0  0  0  0  0  0  0  0  0  0
  -39.1850  159.2380    0.2740 O   0  0  0  0  0  0  0  0  0  0  0  0
  -38.2620  158.8100    1.2110 N   0  0  0  0  0  0  0  0  0  0  0  0
  -35.1000  155.6610    5.3460 C   0  0  0  0  0  0  0  0  0  0  0  0
  -34.1870  156.8100    4.4240 Cl  0  0  0  0  0  0  0  0  0  0  0  0
  -34.4140  154.5780    5.9030 C   0  0  0  0  0  0  0  0  0  0  0  0
  -35.2350  150.3260    7.8150 C   0  0  0  0  0  0  0  0  0  0  0  0
  -35.1120  150.5430    9.2020 C   0  0  0  0  0  0  0  0  0  0  0  0
  -35.4060  149.5340   10.1240 C   0  0  0  0  0  0  0  0  0  0  0  0
  -35.2320  149.9260   11.4260 O   0  0  0  0  0  0  0  0  0  0  0  0
  -33.9270  149.7680   11.9720 C   0  0  0  0  0  0  0  0  0  0  0  0
  -35.1871  146.1833   11.9524 H   0  0  0  0  0  0  0  0  0  0  0  0
  -35.6683  145.3711   10.4242 H   0  0  0  0  0  0  0  0  0  0  0  0
  -34.3210  146.5590   10.4242 H   0  0  0  0  0  0  0  0  0  0  0  0
  -36.3358  147.1124    7.9194 H   0  0  0  0  0  0  0  0  0  0  0  0
  -35.6607  149.5370    4.0769 H   0  0  0  0  0  0  0  0  0  0  0  0
  -34.8863  151.7879    4.7235 H   0  0  0  0  0  0  0  0  0  0  0  0
  -37.0347  153.0510    7.4622 H   0  0  0  0  0  0  0  0  0  0  0  0
  -38.2538  154.9759    6.4536 H   0  0  0  0  0  0  0  0  0  0  0  0
  -37.0550  157.7930    5.4730 H   0  0  0  0  0  0  0  0  0  0  0  0
  -38.1970  158.9920    4.2080 H   0  0  0  0  0  0  0  0  0  0  0  0
  -41.0781  159.0583    2.9602 H   0  0  0  0  0  0  0  0  0  0  0  0
  -42.3386  160.1790    0.6378 H   0  0  0  0  0  0  0  0  0  0  0  0
  -41.1572  160.6649   -0.6251 H   0  0  0  0  0  0  0  0  0  0  0  0
  -41.8393  159.0032   -0.6251 H   0  0  0  0  0  0  0  0  0  0  0  0
  -33.3282  154.4754    5.7596 H   0  0  0  0  0  0  0  0  0  0  0  0
  -34.7781  151.5257    9.5664 H   0  0  0  0  0  0  0  0  0  0  0  0
  -33.9858  149.7751   13.0704 H   0  0  0  0  0  0  0  0  0  0  0  0
  -33.5013  148.8118   11.6338 H   0  0  0  0  0  0  0  0  0  0  0  0
  -33.2854  150.5950   11.6338 H   0  0  0  0  0  0  0  0  0  0  0  0
  1  2  1  0
  2  3  1  0
  3  4  1  0
  4  5  2  0
  5  6  1  0
  6  7  2  0
  7  8  1  0
  8  9  2  0
  9 10  1  0
 10 11  1  0
 11 12  1  0
 12 13  2  0
 13 14  1  0
 14 15  1  0
 15 16  1  0
 16 17  2  0
 16 18  1  0
 18 19  1  0
 19 20  1  0
 20 21  2  0
 21 22  1  0
 21 23  1  0
 23 24  1  0
 14 25  2  0
 25 26  1  0
 25 27  1  0
  9 28  1  0
 28 29  2  0
 29 30  1  0
 30 31  1  0
 31 32  1  0
 30  3  2  0
 28  5  1  0
 27 11  2  0
 24 19  2  0
  1 33  1  0
  1 34  1  0
  1 35  1  0
  4 36  1  0
  7 37  1  0
  8 38  1  0
 12 39  1  0
 13 40  1  0
 15 41  1  0
 18 42  1  0
 20 43  1  0
 22 44  1  0
 22 45  1  0
 22 46  1  0
 27 47  1  0
 29 48  1  0
 32 49  1  0
 32 50  1  0
 32 51  1  0
M  END
>  <meeko>  (6) 
{"is_sidechain": false}

>  <vina_affinity_kcal_mol>  (6) 
-8.262

>  <pose_rank>  (6) 
6

$$$$

     RDKit          3D

 51 54  0  0  0  0  0  0  0  0999 V2000
  -33.0650  157.6310    5.0080 C   0  0  0  0  0  0  0  0  0  0  0  0
  -34.3680  157.3230    4.5300 O   0  0  0  0  0  0  0  0  0  0  0  0
  -34.9160  156.1190    4.8860 C   0  0  0  0  0  0  0  0  0  0  0  0
  -34.1610  154.9540    5.0870 C   0  0  0  0  0  0  0  0  0  0  0  0
  -34.7320  153.7540    5.4930 C   0  0  0  0  0  0  0  0  0  0  0  0
  -33.9360  152.6830    5.6680 N   0  0  0  0  0  0  0  0  0  0  0  0
  -34.4940  151.5260    6.0850 C   0  0  0  0  0  0  0  0  0  0  0  0
  -35.8390  151.3690    6.3310 C   0  0  0  0  0  0  0  0  0  0  0  0
  -36.6600  152.4720    6.1210 C   0  0  0  0  0  0  0  0  0  0  0  0
  -38.0130  152.3850    6.3790 O   0  0  0  0  0  0  0  0  0  0  0  0
  -38.7250  151.4500    5.6600 C   0  0  0  0  0  0  0  0  0  0  0  0
  -38.6860  151.5660    4.2720 C   0  0  0  0  0  0  0  0  0  0  0  0
  -39.3590  150.6410    3.4660 C   0  0  0  0  0  0  0  0  0  0  0  0
  -40.0660  149.5810    4.0400 C   0  0  0  0  0  0  0  0  0  0  0  0
  -40.7670  148.6100    3.2840 N   0  0  0  0  0  0  0  0  0  0  0  0
  -40.2500  147.5910    2.5020 C   0  0  0  0  0  0  0  0  0  0  0  0
  -39.0560  147.3870    2.3160 O   0  0  0  0  0  0  0  0  0  0  0  0
  -41.2610  146.8340    1.9510 N   0  0  0  0  0  0  0  0  0  0  0  0
  -41.0840  145.7540    1.1140 C   0  0  0  0  0  0  0  0  0  0  0  0
  -40.8720  145.7160   -0.2810 C   0  0  0  0  0  0  0  0  0  0  0  0
  -40.7650  144.3800   -0.5790 C   0  0  0  0  0  0  0  0  0  0  0  0
  -40.5420  143.6150   -1.8170 C   0  0  0  0  0  0  0  0  0  0  0  0
  -40.9040  143.6580    0.5640 O   0  0  0  0  0  0  0  0  0  0  0  0
  -41.1050  144.5180    1.6280 N   0  0  0  0  0  0  0  0  0  0  0  0
  -40.0730  149.4640    5.4440 C   0  0  0  0  0  0  0  0  0  0  0  0
  -40.9140  148.1640    6.2230 Cl  0  0  0  0  0  0  0  0  0  0  0  0
  -39.4030  150.3860    6.2530 C   0  0  0  0  0  0  0  0  0  0  0  0
  -36.1190  153.7060    5.7130 C   0  0  0  0  0  0  0  0  0  0  0  0
  -36.8890  154.8670    5.5080 C   0  0  0  0  0  0  0  0  0  0  0  0
  -36.3040  156.0610    5.0760 C   0  0  0  0  0  0  0  0  0  0  0  0
  -37.2050  157.0840    4.9330 O   0  0  0  0  0  0  0  0  0  0  0  0
  -37.8200  157.2210    3.6570 C   0  0  0  0  0  0  0  0  0  0  0  0
  -33.0683  157.6302    6.1080 H   0  0  0  0  0  0  0  0  0  0  0  0
  -32.3527  156.8765    4.6429 H   0  0  0  0  0  0  0  0  0  0  0  0
  -32.7659  158.6246    4.6429 H   0  0  0  0  0  0  0  0  0  0  0  0
  -33.0749  154.9918    4.9166 H   0  0  0  0  0  0  0  0  0  0  0  0
  -33.8350  150.6584    6.2369 H   0  0  0  0  0  0  0  0  0  0  0  0
  -36.2484  150.4095    6.6798 H   0  0  0  0  0  0  0  0  0  0  0  0
  -38.1232  152.3890    3.8074 H   0  0  0  0  0  0  0  0  0  0  0  0
  -39.3313  150.7491    2.3717 H   0  0  0  0  0  0  0  0  0  0  0  0
  -41.7730  148.7140    3.2960 H   0  0  0  0  0  0  0  0  0  0  0  0
  -42.2250  147.0220    2.1670 H   0  0  0  0  0  0  0  0  0  0  0  0
  -40.8070  146.5671   -0.9748 H   0  0  0  0  0  0  0  0  0  0  0  0
  -40.2424  142.5873   -1.5640 H   0  0  0  0  0  0  0  0  0  0  0  0
  -41.4707  143.5917   -2.4060 H   0  0  0  0  0  0  0  0  0  0  0  0
  -39.7462  144.0944   -2.4060 H   0  0  0  0  0  0  0  0  0  0  0  0
  -39.4106  150.2732    7.3472 H   0  0  0  0  0  0  0  0  0  0  0  0
  -37.9731  154.8338    5.6915 H   0  0  0  0  0  0  0  0  0  0  0  0
  -38.8861  157.4585    3.7874 H   0  0  0  0  0  0  0  0  0  0  0  0
  -37.3294  158.0319    3.0986 H   0  0  0  0  0  0  0  0  0  0  0  0
  -37.7199  156.2785    3.0986 H   0  0  0  0  0  0  0  0  0  0  0  0
  1  2  1  0
  2  3  1  0
  3  4  1  0
  4  5  2  0
  5  6  1  0
  6  7  2  0
  7  8  1  0
  8  9  2  0
  9 10  1  0
 10 11  1  0
 11 12  1  0
 12 13  2  0
 13 14  1  0
 14 15  1  0
 15 16  1  0
 16 17  2  0
 16 18  1  0
 18 19  1  0
 19 20  1  0
 20 21  2  0
 21 22  1  0
 21 23  1  0
 23 24  1  0
 14 25  2  0
 25 26  1  0
 25 27  1  0
  9 28  1  0
 28 29  2  0
 29 30  1  0
 30 31  1  0
 31 32  1  0
 30  3  2  0
 28  5  1  0
 27 11  2  0
 24 19  2  0
  1 33  1  0
  1 34  1  0
  1 35  1  0
  4 36  1  0
  7 37  1  0
  8 38  1  0
 12 39  1  0
 13 40  1  0
 15 41  1  0
 18 42  1  0
 20 43  1  0
 22 44  1  0
 22 45  1  0
 22 46  1  0
 27 47  1  0
 29 48  1  0
 32 49  1  0
 32 50  1  0
 32 51  1  0
M  END
>  <meeko>  (7) 
{"is_sidechain": false}

>  <vina_affinity_kcal_mol>  (7) 
-8.098

>  <pose_rank>  (7) 
7

$$$$

     RDKit          3D

 51 54  0  0  0  0  0  0  0  0999 V2000
  -35.0210  166.0280  -12.1430 C   0  0  0  0  0  0  0  0  0  0  0  0
  -36.2090  165.2470  -12.1350 O   0  0  0  0  0  0  0  0  0  0  0  0
  -36.5920  164.6680  -10.9550 C   0  0  0  0  0  0  0  0  0  0  0  0
  -36.0680  163.4570  -10.4810 C   0  0  0  0  0  0  0  0  0  0  0  0
  -36.4370  162.9100   -9.2580 C   0  0  0  0  0  0  0  0  0  0  0  0
  -35.8830  161.7440   -8.8740 N   0  0  0  0  0  0  0  0  0  0  0  0
  -36.2280  161.2310   -7.6740 C   0  0  0  0  0  0  0  0  0  0  0  0
  -37.1300  161.8220   -6.8180 C   0  0  0  0  0  0  0  0  0  0  0  0
  -37.7190  163.0110   -7.2330 C   0  0  0  0  0  0  0  0  0  0  0  0
  -38.6080  163.6670   -6.4050 O   0  0  0  0  0  0  0  0  0  0  0  0
  -38.8610  163.0890   -5.1810 C   0  0  0  0  0  0  0  0  0  0  0  0
  -39.3250  161.7750   -5.1940 C   0  0  0  0  0  0  0  0  0  0  0  0
  -39.5810  161.1040   -3.9930 C   0  0  0  0  0  0  0  0  0  0  0  0
  -39.3620  161.7350   -2.7660 C   0  0  0  0  0  0  0  0  0  0  0  0
  -39.5990  161.1150   -1.5150 N   0  0  0  0  0  0  0  0  0  0  0  0
  -38.7760  160.2490   -0.8160 C   0  0  0  0  0  0  0  0  0  0  0  0
  -37.6850  159.8510   -1.2050 O   0  0  0  0  0  0  0  0  0  0  0  0
  -39.3510  159.8860    0.3830 N   0  0  0  0  0  0  0  0  0  0  0  0
  -38.7970  159.0280    1.3070 C   0  0  0  0  0  0  0  0  0  0  0  0
  -39.2740  158.6350    2.5760 C   0  0  0  0  0  0  0  0  0  0  0  0
  -38.3210  157.7690    3.0520 C   0  0  0  0  0  0  0  0  0  0  0  0
  -38.1640  156.9890    4.2910 C   0  0  0  0  0  0  0  0  0  0  0  0
  -37.3320  157.6470    2.1290 O   0  0  0  0  0  0  0  0  0  0  0  0
  -37.6280  158.4370    1.0330 N   0  0  0  0  0  0  0  0  0  0  0  0
  -38.8680  163.0560   -2.7720 C   0  0  0  0  0  0  0  0  0  0  0  0
  -38.5560  163.8930   -1.2870 Cl  0  0  0  0  0  0  0  0  0  0  0  0
  -38.6120  163.7300   -3.9690 C   0  0  0  0  0  0  0  0  0  0  0  0
  -37.3690  163.5980   -8.4640 C   0  0  0  0  0  0  0  0  0  0  0  0
  -37.9080  164.8130   -8.9310 C   0  0  0  0  0  0  0  0  0  0  0  0
  -37.5450  165.3390  -10.1750 C   0  0  0  0  0  0  0  0  0  0  0  0
  -38.1670  166.5260  -10.4620 O   0  0  0  0  0  0  0  0  0  0  0  0
  -37.5110  167.7120  -10.0300 C   0  0  0  0  0  0  0  0  0  0  0  0
  -34.7097  166.2326  -11.1080 H   0  0  0  0  0  0  0  0  0  0  0  0
  -34.2237  165.4773  -12.6636 H   0  0  0  0  0  0  0  0  0  0  0  0
  -35.2104  166.9783  -12.6636 H   0  0  0  0  0  0  0  0  0  0  0  0
  -35.3362  162.9189  -11.1014 H   0  0  0  0  0  0  0  0  0  0  0  0
  -35.7611  160.2853   -7.3617 H   0  0  0  0  0  0  0  0  0  0  0  0
  -37.3748  161.3715   -5.8448 H   0  0  0  0  0  0  0  0  0  0  0  0
  -39.4908  161.2627   -6.1532 H   0  0  0  0  0  0  0  0  0  0  0  0
  -39.9579  160.0708   -4.0152 H   0  0  0  0  0  0  0  0  0  0  0  0
  -40.5080  161.3090   -1.1150 H   0  0  0  0  0  0  0  0  0  0  0  0
  -40.2340  160.2740    0.6720 H   0  0  0  0  0  0  0  0  0  0  0  0
  -40.2027  158.9521    3.0730 H   0  0  0  0  0  0  0  0  0  0  0  0
  -38.2971  157.6503    5.1599 H   0  0  0  0  0  0  0  0  0  0  0  0
  -38.9193  156.1898    4.3193 H   0  0  0  0  0  0  0  0  0  0  0  0
  -37.1583  156.5442    4.3193 H   0  0  0  0  0  0  0  0  0  0  0  0
  -38.2177  164.7568   -3.9547 H   0  0  0  0  0  0  0  0  0  0  0  0
  -38.6288  165.3589   -8.3046 H   0  0  0  0  0  0  0  0  0  0  0  0
  -37.4944  167.7421   -8.9305 H   0  0  0  0  0  0  0  0  0  0  0  0
  -36.4798  167.7208  -10.4127 H   0  0  0  0  0  0  0  0  0  0  0  0
  -38.0516  168.5902  -10.4127 H   0  0  0  0  0  0  0  0  0  0  0  0
  1  2  1  0
  2  3  1  0
  3  4  1  0
  4  5  2  0
  5  6  1  0
  6  7  2  0
  7  8  1  0
  8  9  2  0
  9 10  1  0
 10 11  1  0
 11 12  1  0
 12 13  2  0
 13 14  1  0
 14 15  1  0
 15 16  1  0
 16 17  2  0
 16 18  1  0
 18 19  1  0
 19 20  1  0
 20 21  2  0
 21 22  1  0
 21 23  1  0
 23 24  1  0
 14 25  2  0
 25 26  1  0
 25 27  1  0
  9 28  1  0
 28 29  2  0
 29 30  1  0
 30 31  1  0
 31 32  1  0
 30  3  2  0
 28  5  1  0
 27 11  2  0
 24 19  2  0
  1 33  1  0
  1 34  1  0
  1 35  1  0
  4 36  1  0
  7 37  1  0
  8 38  1  0
 12 39  1  0
 13 40  1  0
 15 41  1  0
 18 42  1  0
 20 43  1  0
 22 44  1  0
 22 45  1  0
 22 46  1  0
 27 47  1  0
 29 48  1  0
 32 49  1  0
 32 50  1  0
 32 51  1  0
M  END
>  <meeko>  (8) 
{"is_sidechain": false}

>  <vina_affinity_kcal_mol>  (8) 
-8.091

>  <pose_rank>  (8) 
8

$$$$

     RDKit          3D

 51 54  0  0  0  0  0  0  0  0999 V2000
  -33.6280  145.5430   -2.4100 C   0  0  0  0  0  0  0  0  0  0  0  0
  -33.7310  146.8350   -1.8240 O   0  0  0  0  0  0  0  0  0  0  0  0
  -34.6590  147.0210   -0.8350 C   0  0  0  0  0  0  0  0  0  0  0  0
  -35.9990  147.3550   -1.0830 C   0  0  0  0  0  0  0  0  0  0  0  0
  -36.9360  147.4940   -0.0660 C   0  0  0  0  0  0  0  0  0  0  0  0
  -38.2030  147.8120   -0.3900 N   0  0  0  0  0  0  0  0  0  0  0  0
  -39.1130  147.9230    0.6020 C   0  0  0  0  0  0  0  0  0  0  0  0
  -38.8200  147.7440    1.9350 C   0  0  0  0  0  0  0  0  0  0  0  0
  -37.5030  147.4430    2.2640 C   0  0  0  0  0  0  0  0  0  0  0  0
  -37.1530  147.2230    3.5820 O   0  0  0  0  0  0  0  0  0  0  0  0
  -36.9260  148.3360    4.3600 C   0  0  0  0  0  0  0  0  0  0  0  0
  -35.5950  148.6890    4.5730 C   0  0  0  0  0  0  0  0  0  0  0  0
  -35.2760  149.8230    5.3300 C   0  0  0  0  0  0  0  0  0  0  0  0
  -36.2870  150.6230    5.8690 C   0  0  0  0  0  0  0  0  0  0  0  0
  -36.0360  151.7830    6.6410 N   0  0  0  0  0  0  0  0  0  0  0  0
  -36.0070  153.1030    6.2260 C   0  0  0  0  0  0  0  0  0  0  0  0
  -36.1750  153.4790    5.0720 O   0  0  0  0  0  0  0  0  0  0  0  0
  -35.7580  153.9460    7.2870 N   0  0  0  0  0  0  0  0  0  0  0  0
  -35.6550  155.3180    7.2100 C   0  0  0  0  0  0  0  0  0  0  0  0
  -36.6670  156.3020    7.2040 C   0  0  0  0  0  0  0  0  0  0  0  0
  -35.9920  157.4940    7.1100 C   0  0  0  0  0  0  0  0  0  0  0  0
  -36.3990  158.9080    7.0540 C   0  0  0  0  0  0  0  0  0  0  0  0
  -34.6570  157.2440    7.0630 O   0  0  0  0  0  0  0  0  0  0  0  0
  -34.4430  155.8790    7.1250 N   0  0  0  0  0  0  0  0  0  0  0  0
  -37.6280  150.2660    5.6210 C   0  0  0  0  0  0  0  0  0  0  0  0
  -38.9310  151.2240    6.2430 Cl  0  0  0  0  0  0  0  0  0  0  0  0
  -37.9500  149.1340    4.8670 C   0  0  0  0  0  0  0  0  0  0  0  0
  -36.5260  147.2910    1.2620 C   0  0  0  0  0  0  0  0  0  0  0  0
  -35.1810  146.9610    1.5250 C   0  0  0  0  0  0  0  0  0  0  0  0
  -34.2450  146.8480    0.4930 C   0  0  0  0  0  0  0  0  0  0  0  0
  -32.9900  146.5200    0.9360 O   0  0  0  0  0  0  0  0  0  0  0  0
  -32.7580  145.1510    1.2440 C   0  0  0  0  0  0  0  0  0  0  0  0
  -33.5675  144.7841   -1.6161 H   0  0  0  0  0  0  0  0  0  0  0  0
  -34.5137  145.3515   -3.0336 H   0  0  0  0  0  0  0  0  0  0  0  0
  -32.7231  145.4943   -3.0336 H   0  0  0  0  0  0  0  0  0  0  0  0
  -36.3205  147.5130   -2.1230 H   0  0  0  0  0  0  0  0  0  0  0  0
  -40.1492  148.1710    0.3285 H   0  0  0  0  0  0  0  0  0  0  0  0
  -39.5965  147.8354    2.7088 H   0  0  0  0  0  0  0  0  0  0  0  0
  -34.7905  148.0735    4.1442 H   0  0  0  0  0  0  0  0  0  0  0  0
  -34.2218  150.0860    5.5016 H   0  0  0  0  0  0  0  0  0  0  0  0
  -35.8090  151.6020    7.6100 H   0  0  0  0  0  0  0  0  0  0  0  0
  -35.6660  153.5880    8.2230 H   0  0  0  0  0  0  0  0  0  0  0  0
  -37.7546  156.1481    7.2618 H   0  0  0  0  0  0  0  0  0  0  0  0
  -36.5113  159.2980    8.0764 H   0  0  0  0  0  0  0  0  0  0  0  0
  -35.6318  159.4896    6.5219 H   0  0  0  0  0  0  0  0  0  0  0  0
  -37.3580  158.9927    6.5219 H   0  0  0  0  0  0  0  0  0  0  0  0
  -39.0019  148.8753    4.6755 H   0  0  0  0  0  0  0  0  0  0  0  0
  -34.8615  146.7889    2.5634 H   0  0  0  0  0  0  0  0  0  0  0  0
  -32.7357  145.0195    2.3359 H   0  0  0  0  0  0  0  0  0  0  0  0
  -33.5649  144.5373    0.8172 H   0  0  0  0  0  0  0  0  0  0  0  0
  -31.7939  144.8374    0.8172 H   0  0  0  0  0  0  0  0  0  0  0  0
  1  2  1  0
  2  3  1  0
  3  4  1  0
  4  5  2  0
  5  6  1  0
  6  7  2  0
  7  8  1  0
  8  9  2  0
  9 10  1  0
 10 11  1  0
 11 12  1  0
 12 13  2  0
 13 14  1  0
 14 15  1  0
 15 16  1  0
 16 17  2  0
 16 18  1  0
 18 19  1  0
 19 20  1  0
 20 21  2  0
 21 22  1  0
 21 23  1  0
 23 24  1  0
 14 25  2  0
 25 26  1  0
 25 27  1  0
  9 28  1  0
 28 29  2  0
 29 30  1  0
 30 31  1  0
 31 32  1  0
 30  3  2  0
 28  5  1  0
 27 11  2  0
 24 19  2  0
  1 33  1  0
  1 34  1  0
  1 35  1  0
  4 36  1  0
  7 37  1  0
  8 38  1  0
 12 39  1  0
 13 40  1  0
 15 41  1  0
 18 42  1  0
 20 43  1  0
 22 44  1  0
 22 45  1  0
 22 46  1  0
 27 47  1  0
 29 48  1  0
 32 49  1  0
 32 50  1  0
 32 51  1  0
M  END
>  <meeko>  (9) 
{"is_sidechain": false}

>  <vina_affinity_kcal_mol>  (9) 
-7.83

>  <pose_rank>  (9) 
9

$$$$

     RDKit          3D

 51 54  0  0  0  0  0  0  0  0999 V2000
  -30.7840  144.4190    0.3140 C   0  0  0  0  0  0  0  0  0  0  0  0
  -31.9880  144.9130   -0.2580 O   0  0  0  0  0  0  0  0  0  0  0  0
  -33.0310  145.1970    0.5830 C   0  0  0  0  0  0  0  0  0  0  0  0
  -33.3180  144.4530    1.7380 C   0  0  0  0  0  0  0  0  0  0  0  0
  -34.3540  144.7860    2.6030 C   0  0  0  0  0  0  0  0  0  0  0  0
  -34.5600  144.0220    3.6920 N   0  0  0  0  0  0  0  0  0  0  0  0
  -35.5540  144.3650    4.5410 C   0  0  0  0  0  0  0  0  0  0  0  0
  -36.3840  145.4470    4.3520 C   0  0  0  0  0  0  0  0  0  0  0  0
  -36.1820  146.2150    3.2100 C   0  0  0  0  0  0  0  0  0  0  0  0
  -36.9630  147.3300    2.9810 O   0  0  0  0  0  0  0  0  0  0  0  0
  -36.7960  148.3940    3.8400 C   0  0  0  0  0  0  0  0  0  0  0  0
  -35.4840  148.7720    4.1190 C   0  0  0  0  0  0  0  0  0  0  0  0
  -35.2250  149.8610    4.9600 C   0  0  0  0  0  0  0  0  0  0  0  0
  -36.2770  150.5910    5.5200 C   0  0  0  0  0  0  0  0  0  0  0  0
  -36.0870  151.7020    6.3760 N   0  0  0  0  0  0  0  0  0  0  0  0
  -36.0040  153.0420    6.0400 C   0  0  0  0  0  0  0  0  0  0  0  0
  -36.0580  153.4840    4.8990 O   0  0  0  0  0  0  0  0  0  0  0  0
  -35.8480  153.8220    7.1660 N   0  0  0  0  0  0  0  0  0  0  0  0
  -35.7220  155.1940    7.1770 C   0  0  0  0  0  0  0  0  0  0  0  0
  -36.7190  156.1930    7.2030 C   0  0  0  0  0  0  0  0  0  0  0  0
  -36.0240  157.3760    7.2010 C   0  0  0  0  0  0  0  0  0  0  0  0
  -36.4090  158.7980    7.2220 C   0  0  0  0  0  0  0  0  0  0  0  0
  -34.6920  157.1090    7.1760 O   0  0  0  0  0  0  0  0  0  0  0  0
  -34.5000  155.7390    7.1600 N   0  0  0  0  0  0  0  0  0  0  0  0
  -37.5970  150.2100    5.2060 C   0  0  0  0  0  0  0  0  0  0  0  0
  -38.9490  151.0830    5.8500 Cl  0  0  0  0  0  0  0  0  0  0  0  0
  -37.8600  149.1240    4.3670 C   0  0  0  0  0  0  0  0  0  0  0  0
  -35.1420  145.9120    2.3120 C   0  0  0  0  0  0  0  0  0  0  0  0
  -34.8670  146.6630    1.1520 C   0  0  0  0  0  0  0  0  0  0  0  0
  -33.8370  146.3020    0.2780 C   0  0  0  0  0  0  0  0  0  0  0  0
  -33.7160  147.1480   -0.7930 O   0  0  0  0  0  0  0  0  0  0  0  0
  -34.4690  146.8200   -1.9560 C   0  0  0  0  0  0  0  0  0  0  0  0
  -30.8595  144.4500    1.4110 H   0  0  0  0  0  0  0  0  0  0  0  0
  -30.6213  143.3815   -0.0132 H   0  0  0  0  0  0  0  0  0  0  0  0
  -29.9395  145.0433   -0.0132 H   0  0  0  0  0  0  0  0  0  0  0  0
  -32.6995  143.5728    1.9675 H   0  0  0  0  0  0  0  0  0  0  0  0
  -35.7089  143.7434    5.4352 H   0  0  0  0  0  0  0  0  0  0  0  0
  -37.1752  145.6943    5.0751 H   0  0  0  0  0  0  0  0  0  0  0  0
  -34.6474  148.2118    3.6761 H   0  0  0  0  0  0  0  0  0  0  0  0
  -34.1855  150.1442    5.1817 H   0  0  0  0  0  0  0  0  0  0  0  0
  -35.9550  151.4640    7.3510 H   0  0  0  0  0  0  0  0  0  0  0  0
  -35.8490  153.4110    8.0850 H   0  0  0  0  0  0  0  0  0  0  0  0
  -37.8100  156.0540    7.2209 H   0  0  0  0  0  0  0  0  0  0  0  0
  -36.5010  159.1376    8.2642 H   0  0  0  0  0  0  0  0  0  0  0  0
  -35.6398  159.3937    6.7087 H   0  0  0  0  0  0  0  0  0  0  0  0
  -37.3737  158.9243    6.7087 H   0  0  0  0  0  0  0  0  0  0  0  0
  -38.8968  148.8478    4.1247 H   0  0  0  0  0  0  0  0  0  0  0  0
  -35.4754  147.5520    0.9293 H   0  0  0  0  0  0  0  0  0  0  0  0
  -35.4396  146.3973   -1.6572 H   0  0  0  0  0  0  0  0  0  0  0  0
  -34.6333  147.7281   -2.5546 H   0  0  0  0  0  0  0  0  0  0  0  0
  -33.9159  146.0813   -2.5546 H   0  0  0  0  0  0  0  0  0  0  0  0
  1  2  1  0
  2  3  1  0
  3  4  1  0
  4  5  2  0
  5  6  1  0
  6  7  2  0
  7  8  1  0
  8  9  2  0
  9 10  1  0
 10 11  1  0
 11 12  1  0
 12 13  2  0
 13 14  1  0
 14 15  1  0
 15 16  1  0
 16 17  2  0
 16 18  1  0
 18 19  1  0
 19 20  1  0
 20 21  2  0
 21 22  1  0
 21 23  1  0
 23 24  1  0
 14 25  2  0
 25 26  1  0
 25 27  1  0
  9 28  1  0
 28 29  2  0
 29 30  1  0
 30 31  1  0
 31 32  1  0
 30  3  2  0
 28  5  1  0
 27 11  2  0
 24 19  2  0
  1 33  1  0
  1 34  1  0
  1 35  1  0
  4 36  1  0
  7 37  1  0
  8 38  1  0
 12 39  1  0
 13 40  1  0
 15 41  1  0
 18 42  1  0
 20 43  1  0
 22 44  1  0
 22 45  1  0
 22 46  1  0
 27 47  1  0
 29 48  1  0
 32 49  1  0
 32 50  1  0
 32 51  1  0
M  END
>  <meeko>  (10) 
{"is_sidechain": false}

>  <vina_affinity_kcal_mol>  (10) 
-7.765

>  <pose_rank>  (10) 
10

$$$$
