
     RDKit          3D

 55 59  0  0  0  0  0  0  0  0999 V2000
  -36.6520  164.6970  -11.2730 O   0  0  0  0  0  0  0  0  0  0  0  0
  -37.8010  165.3270  -10.5410 S   0  0  0  0  0  4  0  0  0  0  0  0
  -37.1590  166.7280   -9.5390 C   0  0  0  0  0  0  0  0  0  0  0  0
  -37.7990  166.6030   -8.1550 C   0  0  0  0  0  0  0  0  0  0  0  0
  -37.9350  165.1260   -7.9120 C   0  0  0  0  0  0  0  0  0  0  0  0
  -38.0430  164.6130   -6.6800 N   0  0  0  0  0  0  0  0  0  0  0  0
  -38.1780  163.2760   -6.5870 C   0  0  0  0  0  0  0  0  0  0  0  0
  -38.3190  162.6940   -5.3210 N   0  0  0  0  0  0  0  0  0  0  0  0
  -38.9460  163.5810   -4.3350 C   0  0  0  0  0  0  0  0  0  0  0  0
  -38.8740  162.9660   -2.9400 C   0  0  0  0  0  0  0  0  0  0  0  0
  -39.4620  161.5540   -2.9390 C   0  0  0  0  0  0  0  0  0  0  0  0
  -39.4120  160.9410   -1.5600 C   0  0  0  0  0  0  0  0  0  0  0  0
  -39.7410  159.6360   -1.4520 N   0  0  0  0  0  0  0  0  0  0  0  0
  -39.6980  159.1040   -0.2090 C   0  0  0  0  0  0  0  0  0  0  0  0
  -39.3440  159.8150    0.9130 C   0  0  0  0  0  0  0  0  0  0  0  0
  -39.3010  159.1060    2.4680 Cl  0  0  0  0  0  0  0  0  0  0  0  0
  -39.0250  161.1340    0.6980 C   0  0  0  0  0  0  0  0  0  0  0  0
  -39.0500  161.7200   -0.5210 N   0  0  0  0  0  0  0  0  0  0  0  0
  -38.7310  160.6850   -3.9650 C   0  0  0  0  0  0  0  0  0  0  0  0
  -38.8060  161.3130   -5.3540 C   0  0  0  0  0  0  0  0  0  0  0  0
  -38.2110  162.4730   -7.6780 N   0  0  0  0  0  0  0  0  0  0  0  0
  -38.0730  163.0120   -8.9080 C   0  0  0  0  0  0  0  0  0  0  0  0
  -38.1010  162.1770  -10.0510 N   0  0  0  0  0  0  0  0  0  0  0  0
  -37.0100  161.3270  -10.4910 C   0  0  0  0  0  0  0  0  0  0  0  0
  -35.6580  162.0540  -10.4990 C   0  0  0  0  0  0  0  0  0  0  0  0
  -35.2210  162.3330  -11.8250 O   0  0  0  0  0  0  0  0  0  0  0  0
  -36.9830  160.0090   -9.6500 C   0  0  0  0  0  0  0  0  0  0  0  0
  -36.7400  159.2440  -10.9660 C   0  0  0  0  0  0  0  0  0  0  0  0
  -37.3870  160.4300  -11.7060 C   0  0  0  0  0  0  0  0  0  0  0  0
  -37.9670  164.3710   -9.0560 C   0  0  0  0  0  0  0  0  0  0  0  0
  -36.0637  166.6664   -9.4579 H   0  0  0  0  0  0  0  0  0  0  0  0
  -37.4040  167.6942  -10.0042 H   0  0  0  0  0  0  0  0  0  0  0  0
  -37.1551  167.0615   -7.3901 H   0  0  0  0  0  0  0  0  0  0  0  0
  -38.7698  167.1177   -8.1045 H   0  0  0  0  0  0  0  0  0  0  0  0
  -38.4208  164.5475   -4.3320 H   0  0  0  0  0  0  0  0  0  0  0  0
  -40.0023  163.7241   -4.6064 H   0  0  0  0  0  0  0  0  0  0  0  0
  -37.8226  162.9192   -2.6201 H   0  0  0  0  0  0  0  0  0  0  0  0
  -39.4568  163.5916   -2.2479 H   0  0  0  0  0  0  0  0  0  0  0  0
  -40.5222  161.6140   -3.2259 H   0  0  0  0  0  0  0  0  0  0  0  0
  -39.9611  158.0427   -0.0893 H   0  0  0  0  0  0  0  0  0  0  0  0
  -38.7335  161.7466    1.5639 H   0  0  0  0  0  0  0  0  0  0  0  0
  -37.6760  160.5872   -3.6693 H   0  0  0  0  0  0  0  0  0  0  0  0
  -39.2112  159.6959   -3.9974 H   0  0  0  0  0  0  0  0  0  0  0  0
  -38.1868  160.7276   -6.0496 H   0  0  0  0  0  0  0  0  0  0  0  0
  -39.8543  161.3139   -5.6872 H   0  0  0  0  0  0  0  0  0  0  0  0
  -38.4950  162.7290  -10.8200 H   0  0  0  0  0  0  0  0  0  0  0  0
  -35.7589  163.0016   -9.9496 H   0  0  0  0  0  0  0  0  0  0  0  0
  -34.9130  161.4005  -10.0215 H   0  0  0  0  0  0  0  0  0  0  0  0
  -35.3340  163.2980  -11.9550 H   0  0  0  0  0  0  0  0  0  0  0  0
  -36.1582  159.9457   -8.9249 H   0  0  0  0  0  0  0  0  0  0  0  0
  -37.8069  159.7415   -8.9721 H   0  0  0  0  0  0  0  0  0  0  0  0
  -35.6803  159.0763  -11.2088 H   0  0  0  0  0  0  0  0  0  0  0  0
  -37.0970  158.2132  -11.1072 H   0  0  0  0  0  0  0  0  0  0  0  0
  -36.8908  160.7056  -12.6482 H   0  0  0  0  0  0  0  0  0  0  0  0
  -38.4197  160.3772  -12.0811 H   0  0  0  0  0  0  0  0  0  0  0  0
  1  2  2  0
  2  3  1  1
  3  4  1  0
  4  5  1  0
  5  6  2  0
  6  7  1  0
  7  8  1  0
  8  9  1  0
  9 10  1  0
 10 11  1  0
 11 12  1  0
 12 13  2  0
 13 14  1  0
 14 15  2  0
 15 16  1  0
 15 17  1  0
 17 18  2  0
 11 19  1  0
 19 20  1  0
  7 21  2  0
 21 22  1  0
 22 23  1  0
 23 24  1  0
 24 25  1  0
 25 26  1  0
 24 27  1  0
 27 28  1  0
 28 29  1  0
 22 30  2  0
 30  2  1  0
 30  5  1  0
 20  8  1  0
 29 24  1  0
 18 12  1  0
  3 31  1  0
  3 32  1  0
  4 33  1  0
  4 34  1  0
  9 35  1  0
  9 36  1  0
 10 37  1  0
 10 38  1  0
 11 39  1  0
 14 40  1  0
 17 41  1  0
 19 42  1  0
 19 43  1  0
 20 44  1  0
 20 45  1  0
 23 46  1  0
 25 47  1  0
 25 48  1  0
 26 49  1  0
 27 50  1  0
 27 51  1  0
 28 52  1  0
 28 53  1  0
 29 54  1  0
 29 55  1  0
M  END
>  <meeko>  (1) 
{"is_sidechain": false}

>  <vina_affinity_kcal_mol>  (1) 
-8.35

>  <pose_rank>  (1) 
1

$$$$

     RDKit          3D

 55 59  0  0  0  0  0  0  0  0999 V2000
  -35.5860  164.9620  -10.6200 O   0  0  0  0  0  0  0  0  0  0  0  0
  -37.0560  165.0590  -10.3300 S   0  0  0  0  0  4  0  0  0  0  0  0
  -37.3690  166.6200   -9.4100 C   0  0  0  0  0  0  0  0  0  0  0  0
  -38.3000  166.2610   -8.2500 C   0  0  0  0  0  0  0  0  0  0  0  0
  -37.9040  164.8710   -7.8370 C   0  0  0  0  0  0  0  0  0  0  0  0
  -38.1750  164.3860   -6.6190 N   0  0  0  0  0  0  0  0  0  0  0  0
  -37.7880  163.1200   -6.3700 C   0  0  0  0  0  0  0  0  0  0  0  0
  -38.0700  162.5580   -5.1180 N   0  0  0  0  0  0  0  0  0  0  0  0
  -38.8110  163.4550   -4.2250 C   0  0  0  0  0  0  0  0  0  0  0  0
  -38.8970  162.8640   -2.8210 C   0  0  0  0  0  0  0  0  0  0  0  0
  -39.4720  161.4470   -2.8630 C   0  0  0  0  0  0  0  0  0  0  0  0
  -39.5770  160.8570   -1.4780 C   0  0  0  0  0  0  0  0  0  0  0  0
  -38.4400  160.4000   -0.9130 N   0  0  0  0  0  0  0  0  0  0  0  0
  -38.5520  159.8680    0.3260 C   0  0  0  0  0  0  0  0  0  0  0  0
  -39.7400  159.7770    1.0120 C   0  0  0  0  0  0  0  0  0  0  0  0
  -39.8420  159.0980    2.5770 Cl  0  0  0  0  0  0  0  0  0  0  0  0
  -40.8400  160.2720    0.3520 C   0  0  0  0  0  0  0  0  0  0  0  0
  -40.7880  160.8150   -0.8850 N   0  0  0  0  0  0  0  0  0  0  0  0
  -38.6230  160.5670   -3.7840 C   0  0  0  0  0  0  0  0  0  0  0  0
  -38.5410  161.1720   -5.1830 C   0  0  0  0  0  0  0  0  0  0  0  0
  -37.1590  162.3580   -7.2970 N   0  0  0  0  0  0  0  0  0  0  0  0
  -36.8740  162.8800   -8.5080 C   0  0  0  0  0  0  0  0  0  0  0  0
  -36.2120  162.0900   -9.4780 N   0  0  0  0  0  0  0  0  0  0  0  0
  -36.8650  161.1820  -10.4020 C   0  0  0  0  0  0  0  0  0  0  0  0
  -36.7560  159.7130   -9.9690 C   0  0  0  0  0  0  0  0  0  0  0  0
  -36.0000  159.5750   -8.7700 O   0  0  0  0  0  0  0  0  0  0  0  0
  -38.3430  161.6330  -10.6430 C   0  0  0  0  0  0  0  0  0  0  0  0
  -38.1220  161.3540  -12.1430 C   0  0  0  0  0  0  0  0  0  0  0  0
  -36.6130  161.5450  -11.8960 C   0  0  0  0  0  0  0  0  0  0  0  0
  -37.2780  164.1520   -8.8210 C   0  0  0  0  0  0  0  0  0  0  0  0
  -36.4237  167.0307   -9.0256 H   0  0  0  0  0  0  0  0  0  0  0  0
  -37.8210  167.3822  -10.0617 H   0  0  0  0  0  0  0  0  0  0  0  0
  -38.1638  166.9642   -7.4152 H   0  0  0  0  0  0  0  0  0  0  0  0
  -39.3589  166.3150   -8.5430 H   0  0  0  0  0  0  0  0  0  0  0  0
  -38.2951  164.4254   -4.1778 H   0  0  0  0  0  0  0  0  0  0  0  0
  -39.8301  163.5847   -4.6183 H   0  0  0  0  0  0  0  0  0  0  0  0
  -37.8894  162.8315   -2.3809 H   0  0  0  0  0  0  0  0  0  0  0  0
  -39.5602  163.4960   -2.2122 H   0  0  0  0  0  0  0  0  0  0  0  0
  -40.4927  161.4939   -3.2704 H   0  0  0  0  0  0  0  0  0  0  0  0
  -37.6415  159.4869    0.8117 H   0  0  0  0  0  0  0  0  0  0  0  0
  -41.8155  160.2236    0.8581 H   0  0  0  0  0  0  0  0  0  0  0  0
  -37.6085  160.4816   -3.3675 H   0  0  0  0  0  0  0  0  0  0  0  0
  -39.0912  159.5741   -3.8549 H   0  0  0  0  0  0  0  0  0  0  0  0
  -37.8417  160.5806   -5.7923 H   0  0  0  0  0  0  0  0  0  0  0  0
  -39.5439  161.1588   -5.6347 H   0  0  0  0  0  0  0  0  0  0  0  0
  -35.4040  161.6570   -9.0160 H   0  0  0  0  0  0  0  0  0  0  0  0
  -37.7674  159.3142   -9.8013 H   0  0  0  0  0  0  0  0  0  0  0  0
  -36.2417  159.1564  -10.7663 H   0  0  0  0  0  0  0  0  0  0  0  0
  -35.2820  160.2410   -8.8190 H   0  0  0  0  0  0  0  0  0  0  0  0
  -39.1000  160.9936  -10.1654 H   0  0  0  0  0  0  0  0  0  0  0  0
  -38.7134  162.6056  -10.2868 H   0  0  0  0  0  0  0  0  0  0  0  0
  -38.4081  160.3426  -12.4673 H   0  0  0  0  0  0  0  0  0  0  0  0
  -38.6550  161.9229  -12.9191 H   0  0  0  0  0  0  0  0  0  0  0  0
  -35.9686  160.8355  -12.4358 H   0  0  0  0  0  0  0  0  0  0  0  0
  -36.0981  162.4742  -12.1816 H   0  0  0  0  0  0  0  0  0  0  0  0
  1  2  2  0
  2  3  1  1
  3  4  1  0
  4  5  1  0
  5  6  2  0
  6  7  1  0
  7  8  1  0
  8  9  1  0
  9 10  1  0
 10 11  1  0
 11 12  1  0
 12 13  2  0
 13 14  1  0
 14 15  2  0
 15 16  1  0
 15 17  1  0
 17 18  2  0
 11 19  1  0
 19 20  1  0
  7 21  2  0
 21 22  1  0
 22 23  1  0
 23 24  1  0
 24 25  1  0
 25 26  1  0
 24 27  1  0
 27 28  1  0
 28 29  1  0
 22 30  2  0
 30  2  1  0
 30  5  1  0
 20  8  1  0
 29 24  1  0
 18 12  1  0
  3 31  1  0
  3 32  1  0
  4 33  1  0
  4 34  1  0
  9 35  1  0
  9 36  1  0
 10 37  1  0
 10 38  1  0
 11 39  1  0
 14 40  1  0
 17 41  1  0
 19 42  1  0
 19 43  1  0
 20 44  1  0
 20 45  1  0
 23 46  1  0
 25 47  1  0
 25 48  1  0
 26 49  1  0
 27 50  1  0
 27 51  1  0
 28 52  1  0
 28 53  1  0
 29 54  1  0
 29 55  1  0
M  END
>  <meeko>  (2) 
{"is_sidechain": false}

>  <vina_affinity_kcal_mol>  (2) 
-8.324

>  <pose_rank>  (2) 
2

$$$$

     RDKit          3D

 55 59  0  0  0  0  0  0  0  0999 V2000
  -36.1270  165.2150  -12.0810 O   0  0  0  0  0  0  0  0  0  0  0  0
  -37.2600  165.9340  -11.4090 S   0  0  0  0  0  4  0  0  0  0  0  0
  -36.5580  167.1850  -10.2580 C   0  0  0  0  0  0  0  0  0  0  0  0
  -37.3360  167.0550   -8.9470 C   0  0  0  0  0  0  0  0  0  0  0  0
  -37.6620  165.5930   -8.8220 C   0  0  0  0  0  0  0  0  0  0  0  0
  -37.9450  165.0250   -7.6420 N   0  0  0  0  0  0  0  0  0  0  0  0
  -38.2400  163.7100   -7.6570 C   0  0  0  0  0  0  0  0  0  0  0  0
  -38.5660  163.0750   -6.4510 N   0  0  0  0  0  0  0  0  0  0  0  0
  -38.2340  161.6470   -6.4330 C   0  0  0  0  0  0  0  0  0  0  0  0
  -38.8040  160.9800   -5.1840 C   0  0  0  0  0  0  0  0  0  0  0  0
  -38.3570  161.7190   -3.9220 C   0  0  0  0  0  0  0  0  0  0  0  0
  -38.9020  161.0600   -2.6790 C   0  0  0  0  0  0  0  0  0  0  0  0
  -39.3720  161.8680   -1.7050 N   0  0  0  0  0  0  0  0  0  0  0  0
  -39.8510  161.2620   -0.5950 C   0  0  0  0  0  0  0  0  0  0  0  0
  -39.8770  159.8980   -0.4220 C   0  0  0  0  0  0  0  0  0  0  0  0
  -40.4910  159.1690    0.9970 Cl  0  0  0  0  0  0  0  0  0  0  0  0
  -39.3780  159.1630   -1.4700 C   0  0  0  0  0  0  0  0  0  0  0  0
  -38.8870  159.7130   -2.6030 N   0  0  0  0  0  0  0  0  0  0  0  0
  -38.7720  163.1900   -4.0040 C   0  0  0  0  0  0  0  0  0  0  0  0
  -38.2000  163.8440   -5.2590 C   0  0  0  0  0  0  0  0  0  0  0  0
  -38.2620  162.9850   -8.8000 N   0  0  0  0  0  0  0  0  0  0  0  0
  -37.9480  163.5750   -9.9720 C   0  0  0  0  0  0  0  0  0  0  0  0
  -37.9640  162.8190  -11.1690 N   0  0  0  0  0  0  0  0  0  0  0  0
  -37.0490  161.7390  -11.4870 C   0  0  0  0  0  0  0  0  0  0  0  0
  -35.7520  162.2310  -12.1430 C   0  0  0  0  0  0  0  0  0  0  0  0
  -34.8530  162.7770  -11.1830 O   0  0  0  0  0  0  0  0  0  0  0  0
  -36.7900  160.8650  -10.2160 C   0  0  0  0  0  0  0  0  0  0  0  0
  -36.9380  159.6200  -11.1130 C   0  0  0  0  0  0  0  0  0  0  0  0
  -37.7640  160.4890  -12.0810 C   0  0  0  0  0  0  0  0  0  0  0  0
  -37.6730  164.9180  -10.0140 C   0  0  0  0  0  0  0  0  0  0  0  0
  -35.4896  166.9867  -10.0870 H   0  0  0  0  0  0  0  0  0  0  0  0
  -36.6450  168.2000  -10.6729 H   0  0  0  0  0  0  0  0  0  0  0  0
  -36.7191  167.3860   -8.0985 H   0  0  0  0  0  0  0  0  0  0  0  0
  -38.2421  167.6787   -8.9445 H   0  0  0  0  0  0  0  0  0  0  0  0
  -38.6589  161.1655   -7.3261 H   0  0  0  0  0  0  0  0  0  0  0  0
  -37.1396  161.5368   -6.4264 H   0  0  0  0  0  0  0  0  0  0  0  0
  -39.9026  160.9913   -5.2385 H   0  0  0  0  0  0  0  0  0  0  0  0
  -38.4337  159.9453   -5.1366 H   0  0  0  0  0  0  0  0  0  0  0  0
  -37.2600  161.6703   -3.8568 H   0  0  0  0  0  0  0  0  0  0  0  0
  -40.2417  161.8956    0.2149 H   0  0  0  0  0  0  0  0  0  0  0  0
  -39.3780  158.0665   -1.3823 H   0  0  0  0  0  0  0  0  0  0  0  0
  -39.8698  163.2543   -4.0319 H   0  0  0  0  0  0  0  0  0  0  0  0
  -38.3806  163.7171   -3.1214 H   0  0  0  0  0  0  0  0  0  0  0  0
  -38.6002  164.8646   -5.3497 H   0  0  0  0  0  0  0  0  0  0  0  0
  -37.1034  163.8723   -5.1769 H   0  0  0  0  0  0  0  0  0  0  0  0
  -38.0620  163.4840  -11.9450 H   0  0  0  0  0  0  0  0  0  0  0  0
  -35.2640  161.3843  -12.6479 H   0  0  0  0  0  0  0  0  0  0  0  0
  -36.0092  163.0224  -12.8624 H   0  0  0  0  0  0  0  0  0  0  0  0
  -34.1590  163.2470  -11.6920 H   0  0  0  0  0  0  0  0  0  0  0  0
  -35.7926  160.9912   -9.7696 H   0  0  0  0  0  0  0  0  0  0  0  0
  -37.3873  160.9892   -9.3007 H   0  0  0  0  0  0  0  0  0  0  0  0
  -35.9932  159.2417  -11.5303 H   0  0  0  0  0  0  0  0  0  0  0  0
  -37.3257  158.6690  -10.7190 H   0  0  0  0  0  0  0  0  0  0  0  0
  -37.5574  160.3082  -13.1462 H   0  0  0  0  0  0  0  0  0  0  0  0
  -38.8612  160.4202  -12.1192 H   0  0  0  0  0  0  0  0  0  0  0  0
  1  2  2  0
  2  3  1  1
  3  4  1  0
  4  5  1  0
  5  6  2  0
  6  7  1  0
  7  8  1  0
  8  9  1  0
  9 10  1  0
 10 11  1  0
 11 12  1  0
 12 13  2  0
 13 14  1  0
 14 15  2  0
 15 16  1  0
 15 17  1  0
 17 18  2  0
 11 19  1  0
 19 20  1  0
  7 21  2  0
 21 22  1  0
 22 23  1  0
 23 24  1  0
 24 25  1  0
 25 26  1  0
 24 27  1  0
 27 28  1  0
 28 29  1  0
 22 30  2  0
 30  2  1  0
 30  5  1  0
 20  8  1  0
 29 24  1  0
 18 12  1  0
  3 31  1  0
  3 32  1  0
  4 33  1  0
  4 34  1  0
  9 35  1  0
  9 36  1  0
 10 37  1  0
 10 38  1  0
 11 39  1  0
 14 40  1  0
 17 41  1  0
 19 42  1  0
 19 43  1  0
 20 44  1  0
 20 45  1  0
 23 46  1  0
 25 47  1  0
 25 48  1  0
 26 49  1  0
 27 50  1  0
 27 51  1  0
 28 52  1  0
 28 53  1  0
 29 54  1  0
 29 55  1  0
M  END
>  <meeko>  (3) 
{"is_sidechain": false}

>  <vina_affinity_kcal_mol>  (3) 
-8.298

>  <pose_rank>  (3) 
3

$$$$

     RDKit          3D

 55 59  0  0  0  0  0  0  0  0999 V2000
  -38.6830  166.4790   -9.2260 O   0  0  0  0  0  0  0  0  0  0  0  0
  -37.3030  166.0410   -9.6230 S   0  0  0  0  0  4  0  0  0  0  0  0
  -37.2050  166.0100  -11.4580 C   0  0  0  0  0  0  0  0  0  0  0  0
  -36.5200  164.6940  -11.8350 C   0  0  0  0  0  0  0  0  0  0  0  0
  -36.9700  163.7010  -10.8000 C   0  0  0  0  0  0  0  0  0  0  0  0
  -36.9420  162.3800  -11.0200 N   0  0  0  0  0  0  0  0  0  0  0  0
  -37.3530  161.5880  -10.0110 C   0  0  0  0  0  0  0  0  0  0  0  0
  -37.3190  160.1980  -10.1830 N   0  0  0  0  0  0  0  0  0  0  0  0
  -37.1640  159.7840  -11.5810 C   0  0  0  0  0  0  0  0  0  0  0  0
  -37.3480  158.2750  -11.7170 C   0  0  0  0  0  0  0  0  0  0  0  0
  -36.4180  157.5270  -10.7610 C   0  0  0  0  0  0  0  0  0  0  0  0
  -36.5790  156.0330  -10.8970 C   0  0  0  0  0  0  0  0  0  0  0  0
  -37.8370  155.5450  -10.9160 N   0  0  0  0  0  0  0  0  0  0  0  0
  -37.9640  154.2030  -11.0320 C   0  0  0  0  0  0  0  0  0  0  0  0
  -36.8960  153.3430  -11.1280 C   0  0  0  0  0  0  0  0  0  0  0  0
  -37.0970  151.6510  -11.2740 Cl  0  0  0  0  0  0  0  0  0  0  0  0
  -35.6570  153.9360  -11.1010 C   0  0  0  0  0  0  0  0  0  0  0  0
  -35.4700  155.2700  -10.9870 N   0  0  0  0  0  0  0  0  0  0  0  0
  -36.6680  157.9890   -9.3230 C   0  0  0  0  0  0  0  0  0  0  0  0
  -36.4860  159.4990   -9.2020 C   0  0  0  0  0  0  0  0  0  0  0  0
  -37.7710  162.0850   -8.8220 N   0  0  0  0  0  0  0  0  0  0  0  0
  -37.8150  163.4210   -8.6350 C   0  0  0  0  0  0  0  0  0  0  0  0
  -38.2570  163.9460   -7.3970 N   0  0  0  0  0  0  0  0  0  0  0  0
  -37.7980  163.5060   -6.0920 C   0  0  0  0  0  0  0  0  0  0  0  0
  -37.1480  164.6340   -5.2800 C   0  0  0  0  0  0  0  0  0  0  0  0
  -38.1250  165.4600   -4.6550 O   0  0  0  0  0  0  0  0  0  0  0  0
  -38.9630  162.8000   -5.3240 C   0  0  0  0  0  0  0  0  0  0  0  0
  -37.9500  161.7190   -4.8990 C   0  0  0  0  0  0  0  0  0  0  0  0
  -37.1060  162.1110   -6.1270 C   0  0  0  0  0  0  0  0  0  0  0  0
  -37.3750  164.2680   -9.6200 C   0  0  0  0  0  0  0  0  0  0  0  0
  -38.2144  166.0511  -11.8931 H   0  0  0  0  0  0  0  0  0  0  0  0
  -36.6430  166.8746  -11.8408 H   0  0  0  0  0  0  0  0  0  0  0  0
  -36.8317  164.3715  -12.8394 H   0  0  0  0  0  0  0  0  0  0  0  0
  -35.4248  164.7940  -11.8581 H   0  0  0  0  0  0  0  0  0  0  0  0
  -37.9180  160.2972  -12.1959 H   0  0  0  0  0  0  0  0  0  0  0  0
  -36.1520  160.0502  -11.9200 H   0  0  0  0  0  0  0  0  0  0  0  0
  -38.3910  158.0161  -11.4820 H   0  0  0  0  0  0  0  0  0  0  0  0
  -37.1041  157.9813  -12.7486 H   0  0  0  0  0  0  0  0  0  0  0  0
  -35.3770  157.7632  -11.0265 H   0  0  0  0  0  0  0  0  0  0  0  0
  -38.9778  153.7766  -11.0505 H   0  0  0  0  0  0  0  0  0  0  0  0
  -34.7694  153.2906  -11.1762 H   0  0  0  0  0  0  0  0  0  0  0  0
  -37.6955  157.7248   -9.0324 H   0  0  0  0  0  0  0  0  0  0  0  0
  -35.9440  157.4915   -8.6609 H   0  0  0  0  0  0  0  0  0  0  0  0
  -36.7746  159.8181   -8.1896 H   0  0  0  0  0  0  0  0  0  0  0  0
  -35.4310  159.7458   -9.3920 H   0  0  0  0  0  0  0  0  0  0  0  0
  -39.2790  164.0140   -7.4450 H   0  0  0  0  0  0  0  0  0  0  0  0
  -36.5059  164.1912   -4.5043 H   0  0  0  0  0  0  0  0  0  0  0  0
  -36.5592  165.2582   -5.9683 H   0  0  0  0  0  0  0  0  0  0  0  0
  -38.8130  165.6330   -5.3320 H   0  0  0  0  0  0  0  0  0  0  0  0
  -39.3835  163.3849   -4.4927 H   0  0  0  0  0  0  0  0  0  0  0  0
  -39.9073  162.5391   -5.8242 H   0  0  0  0  0  0  0  0  0  0  0  0
  -37.4624  161.9043   -3.9306 H   0  0  0  0  0  0  0  0  0  0  0  0
  -38.2590  160.6784   -4.7210 H   0  0  0  0  0  0  0  0  0  0  0  0
  -36.0212  162.1349   -5.9466 H   0  0  0  0  0  0  0  0  0  0  0  0
  -37.1006  161.4962   -7.0391 H   0  0  0  0  0  0  0  0  0  0  0  0
  1  2  2  0
  2  3  1  6
  3  4  1  0
  4  5  1  0
  5  6  2  0
  6  7  1  0
  7  8  1  0
  8  9  1  0
  9 10  1  0
 10 11  1  0
 11 12  1  0
 12 13  2  0
 13 14  1  0
 14 15  2  0
 15 16  1  0
 15 17  1  0
 17 18  2  0
 11 19  1  0
 19 20  1  0
  7 21  2  0
 21 22  1  0
 22 23  1  0
 23 24  1  0
 24 25  1  0
 25 26  1  0
 24 27  1  0
 27 28  1  0
 28 29  1  0
 22 30  2  0
 30  2  1  0
 30  5  1  0
 20  8  1  0
 29 24  1  0
 18 12  1  0
  3 31  1  0
  3 32  1  0
  4 33  1  0
  4 34  1  0
  9 35  1  0
  9 36  1  0
 10 37  1  0
 10 38  1  0
 11 39  1  0
 14 40  1  0
 17 41  1  0
 19 42  1  0
 19 43  1  0
 20 44  1  0
 20 45  1  0
 23 46  1  0
 25 47  1  0
 25 48  1  0
 26 49  1  0
 27 50  1  0
 27 51  1  0
 28 52  1  0
 28 53  1  0
 29 54  1  0
 29 55  1  0
M  END
>  <meeko>  (4) 
{"is_sidechain": false}

>  <vina_affinity_kcal_mol>  (4) 
-7.546

>  <pose_rank>  (4) 
4

$$$$

     RDKit          3D

 55 59  0  0  0  0  0  0  0  0999 V2000
  -36.7160  144.1580    3.8060 O   0  0  0  0  0  0  0  0  0  0  0  0
  -35.5040  144.6820    4.5220 S   0  0  0  0  0  4  0  0  0  0  0  0
  -35.8540  144.6970    6.3270 C   0  0  0  0  0  0  0  0  0  0  0  0
  -35.3710  146.0510    6.8520 C   0  0  0  0  0  0  0  0  0  0  0  0
  -35.6230  147.0240    5.7350 C   0  0  0  0  0  0  0  0  0  0  0  0
  -35.7380  148.3410    5.9490 N   0  0  0  0  0  0  0  0  0  0  0  0
  -35.9460  149.1170    4.8670 C   0  0  0  0  0  0  0  0  0  0  0  0
  -36.0480  150.5040    5.0370 N   0  0  0  0  0  0  0  0  0  0  0  0
  -37.3330  150.9320    5.6000 C   0  0  0  0  0  0  0  0  0  0  0  0
  -37.4560  152.4530    5.5590 C   0  0  0  0  0  0  0  0  0  0  0  0
  -36.2520  153.1130    6.2330 C   0  0  0  0  0  0  0  0  0  0  0  0
  -36.3690  154.6170    6.2130 C   0  0  0  0  0  0  0  0  0  0  0  0
  -37.1650  155.1630    5.2690 N   0  0  0  0  0  0  0  0  0  0  0  0
  -37.2540  156.5130    5.2600 C   0  0  0  0  0  0  0  0  0  0  0  0
  -36.5880  157.3260    6.1460 C   0  0  0  0  0  0  0  0  0  0  0  0
  -36.7260  159.0300    6.1030 Cl  0  0  0  0  0  0  0  0  0  0  0  0
  -35.8050  156.6750    7.0690 C   0  0  0  0  0  0  0  0  0  0  0  0
  -35.6780  155.3300    7.1260 N   0  0  0  0  0  0  0  0  0  0  0  0
  -34.9570  152.6430    5.5650 C   0  0  0  0  0  0  0  0  0  0  0  0
  -34.8490  151.1210    5.6090 C   0  0  0  0  0  0  0  0  0  0  0  0
  -36.0300  148.6070    3.6150 N   0  0  0  0  0  0  0  0  0  0  0  0
  -35.9380  147.2740    3.4290 C   0  0  0  0  0  0  0  0  0  0  0  0
  -36.0310  146.7360    2.1230 N   0  0  0  0  0  0  0  0  0  0  0  0
  -35.1130  147.0190    1.0360 C   0  0  0  0  0  0  0  0  0  0  0  0
  -35.6780  148.0290    0.0280 C   0  0  0  0  0  0  0  0  0  0  0  0
  -35.7360  149.3420    0.5780 O   0  0  0  0  0  0  0  0  0  0  0  0
  -33.7220  147.4480    1.6070 C   0  0  0  0  0  0  0  0  0  0  0  0
  -33.0710  146.5390    0.5450 C   0  0  0  0  0  0  0  0  0  0  0  0
  -34.3920  145.7470    0.5000 C   0  0  0  0  0  0  0  0  0  0  0  0
  -35.6930  146.4460    4.4940 C   0  0  0  0  0  0  0  0  0  0  0  0
  -36.9334  144.5832    6.5058 H   0  0  0  0  0  0  0  0  0  0  0  0
  -35.3438  143.8672    6.8380 H   0  0  0  0  0  0  0  0  0  0  0  0
  -35.9373  146.3402    7.7496 H   0  0  0  0  0  0  0  0  0  0  0  0
  -34.3096  146.0237    7.1395 H   0  0  0  0  0  0  0  0  0  0  0  0
  -38.1508  150.4870    5.0142 H   0  0  0  0  0  0  0  0  0  0  0  0
  -37.3907  150.5990    6.6468 H   0  0  0  0  0  0  0  0  0  0  0  0
  -37.5082  152.7826    4.5108 H   0  0  0  0  0  0  0  0  0  0  0  0
  -38.3680  152.7479    6.0986 H   0  0  0  0  0  0  0  0  0  0  0  0
  -36.2296  152.8064    7.2892 H   0  0  0  0  0  0  0  0  0  0  0  0
  -37.8949  156.9863    4.5016 H   0  0  0  0  0  0  0  0  0  0  0  0
  -35.2515  157.2811    7.8013 H   0  0  0  0  0  0  0  0  0  0  0  0
  -34.9503  152.9753    4.5164 H   0  0  0  0  0  0  0  0  0  0  0  0
  -34.1026  153.0741    6.1074 H   0  0  0  0  0  0  0  0  0  0  0  0
  -33.9682  150.8039    5.0313 H   0  0  0  0  0  0  0  0  0  0  0  0
  -34.7507  150.8019    6.6571 H   0  0  0  0  0  0  0  0  0  0  0  0
  -37.0120  146.8170    1.8320 H   0  0  0  0  0  0  0  0  0  0  0  0
  -35.0329  148.0433   -0.8629 H   0  0  0  0  0  0  0  0  0  0  0  0
  -36.7009  147.7196   -0.2327 H   0  0  0  0  0  0  0  0  0  0  0  0
  -35.4500  149.2610    1.5120 H   0  0  0  0  0  0  0  0  0  0  0  0
  -33.4923  148.5180    1.4962 H   0  0  0  0  0  0  0  0  0  0  0  0
  -33.4826  147.3472    2.6759 H   0  0  0  0  0  0  0  0  0  0  0  0
  -32.8100  147.0475   -0.3948 H   0  0  0  0  0  0  0  0  0  0  0  0
  -32.1067  146.0414    0.7253 H   0  0  0  0  0  0  0  0  0  0  0  0
  -34.7038  145.4363   -0.5081 H   0  0  0  0  0  0  0  0  0  0  0  0
  -34.4949  144.7745    1.0037 H   0  0  0  0  0  0  0  0  0  0  0  0
  1  2  2  0
  2  3  1  1
  3  4  1  0
  4  5  1  0
  5  6  2  0
  6  7  1  0
  7  8  1  0
  8  9  1  0
  9 10  1  0
 10 11  1  0
 11 12  1  0
 12 13  2  0
 13 14  1  0
 14 15  2  0
 15 16  1  0
 15 17  1  0
 17 18  2  0
 11 19  1  0
 19 20  1  0
  7 21  2  0
 21 22  1  0
 22 23  1  0
 23 24  1  0
 24 25  1  0
 25 26  1  0
 24 27  1  0
 27 28  1  0
 28 29  1  0
 22 30  2  0
 30  2  1  0
 30  5  1  0
 20  8  1  0
 29 24  1  0
 18 12  1  0
  3 31  1  0
  3 32  1  0
  4 33  1  0
  4 34  1  0
  9 35  1  0
  9 36  1  0
 10 37  1  0
 10 38  1  0
 11 39  1  0
 14 40  1  0
 17 41  1  0
 19 42  1  0
 19 43  1  0
 20 44  1  0
 20 45  1  0
 23 46  1  0
 25 47  1  0
 25 48  1  0
 26 49  1  0
 27 50  1  0
 27 51  1  0
 28 52  1  0
 28 53  1  0
 29 54  1  0
 29 55  1  0
M  END
>  <meeko>  (5) 
{"is_sidechain": false}

>  <vina_affinity_kcal_mol>  (5) 
-7.045

>  <pose_rank>  (5) 
5

$$$$

     RDKit          3D

 55 59  0  0  0  0  0  0  0  0999 V2000
  -41.5700  161.9830   -0.2440 O   0  0  0  0  0  0  0  0  0  0  0  0
  -41.9680  160.5400   -0.1260 S   0  0  0  0  0  4  0  0  0  0  0  0
  -42.9260  160.3230    1.4280 C   0  0  0  0  0  0  0  0  0  0  0  0
  -42.3730  159.0690    2.1080 C   0  0  0  0  0  0  0  0  0  0  0  0
  -40.9070  159.0500    1.7780 C   0  0  0  0  0  0  0  0  0  0  0  0
  -40.0180  158.3780    2.5200 N   0  0  0  0  0  0  0  0  0  0  0  0
  -38.7330  158.4210    2.1150 C   0  0  0  0  0  0  0  0  0  0  0  0
  -37.7690  157.7130    2.8440 N   0  0  0  0  0  0  0  0  0  0  0  0
  -36.9770  158.5580    3.7450 C   0  0  0  0  0  0  0  0  0  0  0  0
  -35.8180  157.7660    4.3420 C   0  0  0  0  0  0  0  0  0  0  0  0
  -36.3220  156.4830    5.0060 C   0  0  0  0  0  0  0  0  0  0  0  0
  -35.1850  155.6990    5.6150 C   0  0  0  0  0  0  0  0  0  0  0  0
  -34.7060  156.1240    6.8030 N   0  0  0  0  0  0  0  0  0  0  0  0
  -33.6840  155.4140    7.3320 C   0  0  0  0  0  0  0  0  0  0  0  0
  -33.1290  154.3110    6.7270 C   0  0  0  0  0  0  0  0  0  0  0  0
  -31.8360  153.4390    7.4280 Cl  0  0  0  0  0  0  0  0  0  0  0  0
  -33.6870  153.9570    5.5220 C   0  0  0  0  0  0  0  0  0  0  0  0
  -34.7090  154.6280    4.9460 N   0  0  0  0  0  0  0  0  0  0  0  0
  -37.1030  155.6430    3.9930 C   0  0  0  0  0  0  0  0  0  0  0  0
  -38.2570  156.4480    3.4000 C   0  0  0  0  0  0  0  0  0  0  0  0
  -38.3430  159.1000    1.0100 N   0  0  0  0  0  0  0  0  0  0  0  0
  -39.2550  159.7920    0.2950 C   0  0  0  0  0  0  0  0  0  0  0  0
  -38.8510  160.5090   -0.8570 N   0  0  0  0  0  0  0  0  0  0  0  0
  -38.8310  159.9770   -2.2070 C   0  0  0  0  0  0  0  0  0  0  0  0
  -39.2150  158.4920   -2.2660 C   0  0  0  0  0  0  0  0  0  0  0  0
  -38.2300  157.6700   -1.6490 O   0  0  0  0  0  0  0  0  0  0  0  0
  -39.7080  160.8670   -3.1470 C   0  0  0  0  0  0  0  0  0  0  0  0
  -38.5830  160.7630   -4.1970 C   0  0  0  0  0  0  0  0  0  0  0  0
  -37.6100  160.4700   -3.0390 C   0  0  0  0  0  0  0  0  0  0  0  0
  -40.5790  159.7520    0.6470 C   0  0  0  0  0  0  0  0  0  0  0  0
  -42.7945  161.1985    2.0808 H   0  0  0  0  0  0  0  0  0  0  0  0
  -44.0016  160.2217    1.2212 H   0  0  0  0  0  0  0  0  0  0  0  0
  -42.5218  159.1240    3.1965 H   0  0  0  0  0  0  0  0  0  0  0  0
  -42.8822  158.1575    1.7618 H   0  0  0  0  0  0  0  0  0  0  0  0
  -36.5776  159.4135    3.1806 H   0  0  0  0  0  0  0  0  0  0  0  0
  -37.6242  158.9102    4.5617 H   0  0  0  0  0  0  0  0  0  0  0  0
  -35.1102  157.5039    3.5418 H   0  0  0  0  0  0  0  0  0  0  0  0
  -35.3224  158.3860    5.1035 H   0  0  0  0  0  0  0  0  0  0  0  0
  -37.0009  156.7556    5.8275 H   0  0  0  0  0  0  0  0  0  0  0  0
  -33.2738  155.7368    8.3002 H   0  0  0  0  0  0  0  0  0  0  0  0
  -33.2797  153.0799    4.9979 H   0  0  0  0  0  0  0  0  0  0  0  0
  -36.4262  155.3321    3.1835 H   0  0  0  0  0  0  0  0  0  0  0  0
  -37.5140  154.7614    4.5066 H   0  0  0  0  0  0  0  0  0  0  0  0
  -38.7341  155.8617    2.6009 H   0  0  0  0  0  0  0  0  0  0  0  0
  -38.9839  156.6666    4.1962 H   0  0  0  0  0  0  0  0  0  0  0  0
  -37.9790  160.9960   -0.6200 H   0  0  0  0  0  0  0  0  0  0  0  0
  -40.1741  158.3506   -1.7463 H   0  0  0  0  0  0  0  0  0  0  0  0
  -39.2935  158.1992   -3.3234 H   0  0  0  0  0  0  0  0  0  0  0  0
  -38.3810  156.7610   -1.9830 H   0  0  0  0  0  0  0  0  0  0  0  0
  -40.6614  160.4103   -3.4511 H   0  0  0  0  0  0  0  0  0  0  0  0
  -40.1000  161.8405   -2.8175 H   0  0  0  0  0  0  0  0  0  0  0  0
  -38.7018  159.9379   -4.9147 H   0  0  0  0  0  0  0  0  0  0  0  0
  -38.3925  161.5708   -4.9189 H   0  0  0  0  0  0  0  0  0  0  0  0
  -36.8622  159.6932   -3.2565 H   0  0  0  0  0  0  0  0  0  0  0  0
  -36.9277  161.2421   -2.6539 H   0  0  0  0  0  0  0  0  0  0  0  0
  1  2  2  0
  2  3  1  1
  3  4  1  0
  4  5  1  0
  5  6  2  0
  6  7  1  0
  7  8  1  0
  8  9  1  0
  9 10  1  0
 10 11  1  0
 11 12  1  0
 12 13  2  0
 13 14  1  0
 14 15  2  0
 15 16  1  0
 15 17  1  0
 17 18  2  0
 11 19  1  0
 19 20  1  0
  7 21  2  0
 21 22  1  0
 22 23  1  0
 23 24  1  0
 24 25  1  0
 25 26  1  0
 24 27  1  0
 27 28  1  0
 28 29  1  0
 22 30  2  0
 30  2  1  0
 30  5  1  0
 20  8  1  0
 29 24  1  0
 18 12  1  0
  3 31  1  0
  3 32  1  0
  4 33  1  0
  4 34  1  0
  9 35  1  0
  9 36  1  0
 10 37  1  0
 10 38  1  0
 11 39  1  0
 14 40  1  0
 17 41  1  0
 19 42  1  0
 19 43  1  0
 20 44  1  0
 20 45  1  0
 23 46  1  0
 25 47  1  0
 25 48  1  0
 26 49  1  0
 27 50  1  0
 27 51  1  0
 28 52  1  0
 28 53  1  0
 29 54  1  0
 29 55  1  0
M  END
>  <meeko>  (6) 
{"is_sidechain": false}

>  <vina_affinity_kcal_mol>  (6) 
-6.936

>  <pose_rank>  (6) 
6

$$$$

     RDKit          3D

 55 59  0  0  0  0  0  0  0  0999 V2000
  -33.5700  150.1170    9.6490 O   0  0  0  0  0  0  0  0  0  0  0  0
  -35.0680  150.0410    9.7050 S   0  0  0  0  0  4  0  0  0  0  0  0
  -35.5510  148.3160   10.1180 C   0  0  0  0  0  0  0  0  0  0  0  0
  -36.6820  147.9390    9.1590 C   0  0  0  0  0  0  0  0  0  0  0  0
  -36.3680  148.6520    7.8740 C   0  0  0  0  0  0  0  0  0  0  0  0
  -36.8610  148.2480    6.6960 N   0  0  0  0  0  0  0  0  0  0  0  0
  -36.5240  148.9780    5.6140 C   0  0  0  0  0  0  0  0  0  0  0  0
  -37.0350  148.6100    4.3620 N   0  0  0  0  0  0  0  0  0  0  0  0
  -38.0870  149.5060    3.8720 C   0  0  0  0  0  0  0  0  0  0  0  0
  -38.7380  148.9320    2.6170 C   0  0  0  0  0  0  0  0  0  0  0  0
  -37.6830  148.6050    1.5590 C   0  0  0  0  0  0  0  0  0  0  0  0
  -38.3170  148.0510    0.3060 C   0  0  0  0  0  0  0  0  0  0  0  0
  -39.6390  147.7820    0.3490 N   0  0  0  0  0  0  0  0  0  0  0  0
  -40.1900  147.2800   -0.7800 C   0  0  0  0  0  0  0  0  0  0  0  0
  -39.4800  147.0380   -1.9320 C   0  0  0  0  0  0  0  0  0  0  0  0
  -40.2130  146.4020   -3.3400 Cl  0  0  0  0  0  0  0  0  0  0  0  0
  -38.1420  147.3460   -1.8750 C   0  0  0  0  0  0  0  0  0  0  0  0
  -37.5380  147.8500   -0.7760 N   0  0  0  0  0  0  0  0  0  0  0  0
  -36.6460  147.6390    2.1370 C   0  0  0  0  0  0  0  0  0  0  0  0
  -36.0060  148.2230    3.3940 C   0  0  0  0  0  0  0  0  0  0  0  0
  -35.7320  150.0730    5.6960 N   0  0  0  0  0  0  0  0  0  0  0  0
  -35.2260  150.4430    6.8910 C   0  0  0  0  0  0  0  0  0  0  0  0
  -34.3920  151.5840    6.9810 N   0  0  0  0  0  0  0  0  0  0  0  0
  -34.6560  152.8630    6.3490 C   0  0  0  0  0  0  0  0  0  0  0  0
  -33.7700  153.1120    5.1210 C   0  0  0  0  0  0  0  0  0  0  0  0
  -33.7520  151.9850    4.2500 O   0  0  0  0  0  0  0  0  0  0  0  0
  -36.1810  153.0000    6.0320 C   0  0  0  0  0  0  0  0  0  0  0  0
  -36.1010  154.4470    6.5590 C   0  0  0  0  0  0  0  0  0  0  0  0
  -34.8630  154.0190    7.3720 C   0  0  0  0  0  0  0  0  0  0  0  0
  -35.5670  149.7540    8.0260 C   0  0  0  0  0  0  0  0  0  0  0  0
  -34.6951  147.6387    9.9809 H   0  0  0  0  0  0  0  0  0  0  0  0
  -35.8748  148.2341   11.1661 H   0  0  0  0  0  0  0  0  0  0  0  0
  -36.7053  146.8508    8.9999 H   0  0  0  0  0  0  0  0  0  0  0  0
  -37.6676  148.2243    9.5556 H   0  0  0  0  0  0  0  0  0  0  0  0
  -38.8519  149.6271    4.6532 H   0  0  0  0  0  0  0  0  0  0  0  0
  -37.6381  150.4796    3.6257 H   0  0  0  0  0  0  0  0  0  0  0  0
  -39.2812  148.0126    2.8808 H   0  0  0  0  0  0  0  0  0  0  0  0
  -39.4303  149.6809    2.2049 H   0  0  0  0  0  0  0  0  0  0  0  0
  -37.1701  149.5357    1.2750 H   0  0  0  0  0  0  0  0  0  0  0  0
  -41.2663  147.0528   -0.7759 H   0  0  0  0  0  0  0  0  0  0  0  0
  -37.5295  147.1730   -2.7722 H   0  0  0  0  0  0  0  0  0  0  0  0
  -37.1394  146.6892    2.3909 H   0  0  0  0  0  0  0  0  0  0  0  0
  -35.8606  147.4721    1.3852 H   0  0  0  0  0  0  0  0  0  0  0  0
  -35.3471  147.4685    3.8485 H   0  0  0  0  0  0  0  0  0  0  0  0
  -35.4261  149.1154    3.1159 H   0  0  0  0  0  0  0  0  0  0  0  0
  -33.4290  151.2680    6.8270 H   0  0  0  0  0  0  0  0  0  0  0  0
  -34.1584  153.9819    4.5711 H   0  0  0  0  0  0  0  0  0  0  0  0
  -32.7426  153.2940    5.4693 H   0  0  0  0  0  0  0  0  0  0  0  0
  -34.4330  152.1550    3.5650 H   0  0  0  0  0  0  0  0  0  0  0  0
  -36.4359  152.9151    4.9653 H   0  0  0  0  0  0  0  0  0  0  0  0
  -36.9174  152.2839    6.4256 H   0  0  0  0  0  0  0  0  0  0  0  0
  -35.9019  155.2049    5.7870 H   0  0  0  0  0  0  0  0  0  0  0  0
  -36.9635  154.9347    7.0367 H   0  0  0  0  0  0  0  0  0  0  0  0
  -34.0514  154.7612    7.3926 H   0  0  0  0  0  0  0  0  0  0  0  0
  -34.9258  153.8241    8.4528 H   0  0  0  0  0  0  0  0  0  0  0  0
  1  2  2  0
  2  3  1  1
  3  4  1  0
  4  5  1  0
  5  6  2  0
  6  7  1  0
  7  8  1  0
  8  9  1  0
  9 10  1  0
 10 11  1  0
 11 12  1  0
 12 13  2  0
 13 14  1  0
 14 15  2  0
 15 16  1  0
 15 17  1  0
 17 18  2  0
 11 19  1  0
 19 20  1  0
  7 21  2  0
 21 22  1  0
 22 23  1  0
 23 24  1  0
 24 25  1  0
 25 26  1  0
 24 27  1  0
 27 28  1  0
 28 29  1  0
 22 30  2  0
 30  2  1  0
 30  5  1  0
 20  8  1  0
 29 24  1  0
 18 12  1  0
  3 31  1  0
  3 32  1  0
  4 33  1  0
  4 34  1  0
  9 35  1  0
  9 36  1  0
 10 37  1  0
 10 38  1  0
 11 39  1  0
 14 40  1  0
 17 41  1  0
 19 42  1  0
 19 43  1  0
 20 44  1  0
 20 45  1  0
 23 46  1  0
 25 47  1  0
 25 48  1  0
 26 49  1  0
 27 50  1  0
 27 51  1  0
 28 52  1  0
 28 53  1  0
 29 54  1  0
 29 55  1  0
M  END
>  <meeko>  (7) 
{"is_sidechain": false}

>  <vina_affinity_kcal_mol>  (7) 
-6.772

>  <pose_rank>  (7) 
7

$$$$

     RDKit          3D

 55 59  0  0  0  0  0  0  0  0999 V2000
  -40.0680  145.0910    1.3330 O   0  0  0  0  0  0  0  0  0  0  0  0
  -39.6760  144.9710    2.7770 S   0  0  0  0  0  4  0  0  0  0  0  0
  -41.1020  145.4910    3.8150 C   0  0  0  0  0  0  0  0  0  0  0  0
  -40.5390  146.4170    4.8950 C   0  0  0  0  0  0  0  0  0  0  0  0
  -39.4070  147.1540    4.2370 C   0  0  0  0  0  0  0  0  0  0  0  0
  -38.9550  148.3270    4.7000 N   0  0  0  0  0  0  0  0  0  0  0  0
  -37.9240  148.8850    4.0380 C   0  0  0  0  0  0  0  0  0  0  0  0
  -37.4000  150.1000    4.4980 N   0  0  0  0  0  0  0  0  0  0  0  0
  -38.4270  151.0850    4.8530 C   0  0  0  0  0  0  0  0  0  0  0  0
  -37.7920  152.4420    5.1400 C   0  0  0  0  0  0  0  0  0  0  0  0
  -36.6900  152.3140    6.1930 C   0  0  0  0  0  0  0  0  0  0  0  0
  -36.0650  153.6540    6.4980 C   0  0  0  0  0  0  0  0  0  0  0  0
  -36.9000  154.6780    6.7720 N   0  0  0  0  0  0  0  0  0  0  0  0
  -36.3240  155.8730    7.0360 C   0  0  0  0  0  0  0  0  0  0  0  0
  -34.9650  156.0810    7.0370 C   0  0  0  0  0  0  0  0  0  0  0  0
  -34.2740  157.6070    7.3760 Cl  0  0  0  0  0  0  0  0  0  0  0  0
  -34.2010  154.9760    6.7490 C   0  0  0  0  0  0  0  0  0  0  0  0
  -34.7200  153.7570    6.4770 N   0  0  0  0  0  0  0  0  0  0  0  0
  -35.6430  151.2990    5.7310 C   0  0  0  0  0  0  0  0  0  0  0  0
  -36.2910  149.9470    5.4430 C   0  0  0  0  0  0  0  0  0  0  0  0
  -37.3530  148.2990    2.9580 N   0  0  0  0  0  0  0  0  0  0  0  0
  -37.8440  147.1310    2.4950 C   0  0  0  0  0  0  0  0  0  0  0  0
  -37.2550  146.5170    1.3630 N   0  0  0  0  0  0  0  0  0  0  0  0
  -37.1550  147.1170    0.0460 C   0  0  0  0  0  0  0  0  0  0  0  0
  -35.9230  148.0210   -0.1030 C   0  0  0  0  0  0  0  0  0  0  0  0
  -36.1970  149.3540    0.3170 O   0  0  0  0  0  0  0  0  0  0  0  0
  -37.2280  146.0100   -1.0550 C   0  0  0  0  0  0  0  0  0  0  0  0
  -38.1780  146.9350   -1.8410 C   0  0  0  0  0  0  0  0  0  0  0  0
  -38.5240  147.6180   -0.5030 C   0  0  0  0  0  0  0  0  0  0  0  0
  -38.8710  146.5060    3.1550 C   0  0  0  0  0  0  0  0  0  0  0  0
  -41.8420  146.0272    3.2028 H   0  0  0  0  0  0  0  0  0  0  0  0
  -41.6073  144.6215    4.2607 H   0  0  0  0  0  0  0  0  0  0  0  0
  -41.3103  147.1226    5.2375 H   0  0  0  0  0  0  0  0  0  0  0  0
  -40.2032  145.8569    5.7802 H   0  0  0  0  0  0  0  0  0  0  0  0
  -39.1350  151.1865    4.0173 H   0  0  0  0  0  0  0  0  0  0  0  0
  -38.9519  150.7406    5.7562 H   0  0  0  0  0  0  0  0  0  0  0  0
  -37.3586  152.8411    4.2111 H   0  0  0  0  0  0  0  0  0  0  0  0
  -38.5684  153.1208    5.5227 H   0  0  0  0  0  0  0  0  0  0  0  0
  -37.1386  151.9488    7.1286 H   0  0  0  0  0  0  0  0  0  0  0  0
  -36.9799  156.7265    7.2627 H   0  0  0  0  0  0  0  0  0  0  0  0
  -33.1069  155.0889    6.7391 H   0  0  0  0  0  0  0  0  0  0  0  0
  -35.1600  151.6702    4.8150 H   0  0  0  0  0  0  0  0  0  0  0  0
  -34.8985  151.1707    6.5305 H   0  0  0  0  0  0  0  0  0  0  0  0
  -35.5390  149.2697    5.0119 H   0  0  0  0  0  0  0  0  0  0  0  0
  -36.6805  149.5317    6.3842 H   0  0  0  0  0  0  0  0  0  0  0  0
  -37.6060  145.5540    1.3240 H   0  0  0  0  0  0  0  0  0  0  0  0
  -35.1055  147.6143    0.5105 H   0  0  0  0  0  0  0  0  0  0  0  0
  -35.6413  148.0462   -1.1660 H   0  0  0  0  0  0  0  0  0  0  0  0
  -36.5960  149.2850    1.2110 H   0  0  0  0  0  0  0  0  0  0  0  0
  -36.2723  145.8018   -1.5583 H   0  0  0  0  0  0  0  0  0  0  0  0
  -37.5051  144.9737   -0.8114 H   0  0  0  0  0  0  0  0  0  0  0  0
  -37.6795  147.5879   -2.5726 H   0  0  0  0  0  0  0  0  0  0  0  0
  -38.9601  146.5310   -2.5007 H   0  0  0  0  0  0  0  0  0  0  0  0
  -38.6201  148.7123   -0.5604 H   0  0  0  0  0  0  0  0  0  0  0  0
  -39.4660  147.4046    0.0234 H   0  0  0  0  0  0  0  0  0  0  0  0
  1  2  2  0
  2  3  1  1
  3  4  1  0
  4  5  1  0
  5  6  2  0
  6  7  1  0
  7  8  1  0
  8  9  1  0
  9 10  1  0
 10 11  1  0
 11 12  1  0
 12 13  2  0
 13 14  1  0
 14 15  2  0
 15 16  1  0
 15 17  1  0
 17 18  2  0
 11 19  1  0
 19 20  1  0
  7 21  2  0
 21 22  1  0
 22 23  1  0
 23 24  1  0
 24 25  1  0
 25 26  1  0
 24 27  1  0
 27 28  1  0
 28 29  1  0
 22 30  2  0
 30  2  1  0
 30  5  1  0
 20  8  1  0
 29 24  1  0
 18 12  1  0
  3 31  1  0
  3 32  1  0
  4 33  1  0
  4 34  1  0
  9 35  1  0
  9 36  1  0
 10 37  1  0
 10 38  1  0
 11 39  1  0
 14 40  1  0
 17 41  1  0
 19 42  1  0
 19 43  1  0
 20 44  1  0
 20 45  1  0
 23 46  1  0
 25 47  1  0
 25 48  1  0
 26 49  1  0
 27 50  1  0
 27 51  1  0
 28 52  1  0
 28 53  1  0
 29 54  1  0
 29 55  1  0
M  END
>  <meeko>  (8) 
{"is_sidechain": false}

>  <vina_affinity_kcal_mol>  (8) 
-6.725

>  <pose_rank>  (8) 
8

$$$$

     RDKit          3D

 55 59  0  0  0  0  0  0  0  0999 V2000
  -36.1250  146.0550   -2.4570 O   0  0  0  0  0  0  0  0  0  0  0  0
  -35.0150  147.0280   -2.1800 S   0  0  0  0  0  4  0  0  0  0  0  0
  -33.5220  146.0820   -1.6750 C   0  0  0  0  0  0  0  0  0  0  0  0
  -32.9490  146.7960   -0.4490 C   0  0  0  0  0  0  0  0  0  0  0  0
  -34.1410  147.3320    0.2930 C   0  0  0  0  0  0  0  0  0  0  0  0
  -34.0940  147.6310    1.5970 N   0  0  0  0  0  0  0  0  0  0  0  0
  -35.2200  148.1210    2.1490 C   0  0  0  0  0  0  0  0  0  0  0  0
  -35.2140  148.4720    3.5060 N   0  0  0  0  0  0  0  0  0  0  0  0
  -36.4950  149.0080    3.9790 C   0  0  0  0  0  0  0  0  0  0  0  0
  -36.3540  149.5620    5.3940 C   0  0  0  0  0  0  0  0  0  0  0  0
  -35.7580  148.5090    6.3310 C   0  0  0  0  0  0  0  0  0  0  0  0
  -35.6290  149.0390    7.7380 C   0  0  0  0  0  0  0  0  0  0  0  0
  -35.9610  148.2050    8.7460 N   0  0  0  0  0  0  0  0  0  0  0  0
  -35.8460  148.6980   10.0010 C   0  0  0  0  0  0  0  0  0  0  0  0
  -35.4170  149.9730   10.2830 C   0  0  0  0  0  0  0  0  0  0  0  0
  -35.2840  150.5590   11.8830 Cl  0  0  0  0  0  0  0  0  0  0  0  0
  -35.1010  150.7430    9.1890 C   0  0  0  0  0  0  0  0  0  0  0  0
  -35.1960  150.3040    7.9140 N   0  0  0  0  0  0  0  0  0  0  0  0
  -34.4110  148.0290    5.7870 C   0  0  0  0  0  0  0  0  0  0  0  0
  -34.5640  147.4830    4.3700 C   0  0  0  0  0  0  0  0  0  0  0  0
  -36.3540  148.3160    1.4330 N   0  0  0  0  0  0  0  0  0  0  0  0
  -36.3830  147.9820    0.1260 C   0  0  0  0  0  0  0  0  0  0  0  0
  -37.5670  148.1790   -0.6250 N   0  0  0  0  0  0  0  0  0  0  0  0
  -38.7700  147.3760   -0.5130 C   0  0  0  0  0  0  0  0  0  0  0  0
  -39.4190  147.0840   -1.8730 C   0  0  0  0  0  0  0  0  0  0  0  0
  -38.6110  147.5500   -2.9500 O   0  0  0  0  0  0  0  0  0  0  0  0
  -38.4740  146.0770    0.3060 C   0  0  0  0  0  0  0  0  0  0  0  0
  -39.8040  146.3120    1.0490 C   0  0  0  0  0  0  0  0  0  0  0  0
  -39.6800  147.8020    0.6770 C   0  0  0  0  0  0  0  0  0  0  0  0
  -35.2520  147.5110   -0.4890 C   0  0  0  0  0  0  0  0  0  0  0  0
  -33.7960  145.0479   -1.4189 H   0  0  0  0  0  0  0  0  0  0  0  0
  -32.7847  146.0378   -2.4901 H   0  0  0  0  0  0  0  0  0  0  0  0
  -32.3890  146.0895    0.1812 H   0  0  0  0  0  0  0  0  0  0  0  0
  -32.2487  147.5960   -0.7312 H   0  0  0  0  0  0  0  0  0  0  0  0
  -36.8206  149.8145    3.3055 H   0  0  0  0  0  0  0  0  0  0  0  0
  -37.2381  148.1970    3.9874 H   0  0  0  0  0  0  0  0  0  0  0  0
  -35.6939  150.4417    5.3731 H   0  0  0  0  0  0  0  0  0  0  0  0
  -37.3511  149.8414    5.7651 H   0  0  0  0  0  0  0  0  0  0  0  0
  -36.4418  147.6484    6.3731 H   0  0  0  0  0  0  0  0  0  0  0  0
  -36.1108  148.0414   10.8429 H   0  0  0  0  0  0  0  0  0  0  0  0
  -34.7520  151.7720    9.3603 H   0  0  0  0  0  0  0  0  0  0  0  0
  -33.7055  148.8728    5.7744 H   0  0  0  0  0  0  0  0  0  0  0  0
  -34.0339  147.2253    6.4365 H   0  0  0  0  0  0  0  0  0  0  0  0
  -33.5695  147.2458    3.9642 H   0  0  0  0  0  0  0  0  0  0  0  0
  -35.1861  146.5765    4.4035 H   0  0  0  0  0  0  0  0  0  0  0  0
  -37.2860  148.3200   -1.6020 H   0  0  0  0  0  0  0  0  0  0  0  0
  -39.5593  145.9978   -1.9758 H   0  0  0  0  0  0  0  0  0  0  0  0
  -40.3841  147.6101   -1.9140 H   0  0  0  0  0  0  0  0  0  0  0  0
  -38.9530  147.1140   -3.7590 H   0  0  0  0  0  0  0  0  0  0  0  0
  -38.4417  145.1555   -0.2938 H   0  0  0  0  0  0  0  0  0  0  0  0
  -37.5271  145.9424    0.8494 H   0  0  0  0  0  0  0  0  0  0  0  0
  -40.6717  145.8006    0.6068 H   0  0  0  0  0  0  0  0  0  0  0  0
  -39.9469  145.9883    2.0905 H   0  0  0  0  0  0  0  0  0  0  0  0
  -40.6260  148.2786    0.3804 H   0  0  0  0  0  0  0  0  0  0  0  0
  -39.3496  148.5508    1.4119 H   0  0  0  0  0  0  0  0  0  0  0  0
  1  2  2  0
  2  3  1  1
  3  4  1  0
  4  5  1  0
  5  6  2  0
  6  7  1  0
  7  8  1  0
  8  9  1  0
  9 10  1  0
 10 11  1  0
 11 12  1  0
 12 13  2  0
 13 14  1  0
 14 15  2  0
 15 16  1  0
 15 17  1  0
 17 18  2  0
 11 19  1  0
 19 20  1  0
  7 21  2  0
 21 22  1  0
 22 23  1  0
 23 24  1  0
 24 25  1  0
 25 26  1  0
 24 27  1  0
 27 28  1  0
 28 29  1  0
 22 30  2  0
 30  2  1  0
 30  5  1  0
 20  8  1  0
 29 24  1  0
 18 12  1  0
  3 31  1  0
  3 32  1  0
  4 33  1  0
  4 34  1  0
  9 35  1  0
  9 36  1  0
 10 37  1  0
 10 38  1  0
 11 39  1  0
 14 40  1  0
 17 41  1  0
 19 42  1  0
 19 43  1  0
 20 44  1  0
 20 45  1  0
 23 46  1  0
 25 47  1  0
 25 48  1  0
 26 49  1  0
 27 50  1  0
 27 51  1  0
 28 52  1  0
 28 53  1  0
 29 54  1  0
 29 55  1  0
M  END
>  <meeko>  (9) 
{"is_sidechain": false}

>  <vina_affinity_kcal_mol>  (9) 
-6.616

>  <pose_rank>  (9) 
9

$$$$

     RDKit          3D

 55 59  0  0  0  0  0  0  0  0999 V2000
  -35.1640  144.3050    8.3880 O   0  0  0  0  0  0  0  0  0  0  0  0
  -36.5880  144.7570    8.2310 S   0  0  0  0  0  4  0  0  0  0  0  0
  -37.0510  144.6230    6.4560 C   0  0  0  0  0  0  0  0  0  0  0  0
  -37.7720  145.9240    6.0960 C   0  0  0  0  0  0  0  0  0  0  0  0
  -37.1060  146.9900    6.9210 C   0  0  0  0  0  0  0  0  0  0  0  0
  -37.1530  148.2850    6.5830 N   0  0  0  0  0  0  0  0  0  0  0  0
  -36.5340  149.1500    7.4100 C   0  0  0  0  0  0  0  0  0  0  0  0
  -36.5760  150.5190    7.1130 N   0  0  0  0  0  0  0  0  0  0  0  0
  -35.4120  151.2620    7.6070 C   0  0  0  0  0  0  0  0  0  0  0  0
  -35.6230  152.7640    7.4380 C   0  0  0  0  0  0  0  0  0  0  0  0
  -35.9830  153.1010    5.9900 C   0  0  0  0  0  0  0  0  0  0  0  0
  -36.1780  154.5860    5.8050 C   0  0  0  0  0  0  0  0  0  0  0  0
  -35.1550  155.3930    6.1570 N   0  0  0  0  0  0  0  0  0  0  0  0
  -35.3500  156.7220    5.9920 C   0  0  0  0  0  0  0  0  0  0  0  0
  -36.5100  157.2670    5.4960 C   0  0  0  0  0  0  0  0  0  0  0  0
  -36.7170  158.9520    5.3010 Cl  0  0  0  0  0  0  0  0  0  0  0  0
  -37.4910  156.3620    5.1660 C   0  0  0  0  0  0  0  0  0  0  0  0
  -37.3530  155.0250    5.3090 N   0  0  0  0  0  0  0  0  0  0  0  0
  -37.2250  152.3150    5.5640 C   0  0  0  0  0  0  0  0  0  0  0  0
  -37.0020  150.8150    5.7430 C   0  0  0  0  0  0  0  0  0  0  0  0
  -35.8960  148.7490    8.5350 N   0  0  0  0  0  0  0  0  0  0  0  0
  -35.8400  147.4350    8.8380 C   0  0  0  0  0  0  0  0  0  0  0  0
  -35.1690  147.0100   10.0100 N   0  0  0  0  0  0  0  0  0  0  0  0
  -33.7970  147.3350   10.3510 C   0  0  0  0  0  0  0  0  0  0  0  0
  -33.6600  148.7150   11.0100 C   0  0  0  0  0  0  0  0  0  0  0  0
  -33.2680  149.7090   10.0690 O   0  0  0  0  0  0  0  0  0  0  0  0
  -33.1720  146.1890   11.2120 C   0  0  0  0  0  0  0  0  0  0  0  0
  -31.8990  146.3170   10.3520 C   0  0  0  0  0  0  0  0  0  0  0  0
  -32.7800  146.9280    9.2450 C   0  0  0  0  0  0  0  0  0  0  0  0
  -36.4840  146.5180    8.0470 C   0  0  0  0  0  0  0  0  0  0  0  0
  -36.1501  144.5037    5.8362 H   0  0  0  0  0  0  0  0  0  0  0  0
  -37.6945  143.7489    6.2775 H   0  0  0  0  0  0  0  0  0  0  0  0
  -37.6610  146.1416    5.0235 H   0  0  0  0  0  0  0  0  0  0  0  0
  -38.8514  145.8636    6.2992 H   0  0  0  0  0  0  0  0  0  0  0  0
  -35.2641  151.0353    8.6732 H   0  0  0  0  0  0  0  0  0  0  0  0
  -34.5267  150.9606    7.0279 H   0  0  0  0  0  0  0  0  0  0  0  0
  -36.4401  153.0902    8.0983 H   0  0  0  0  0  0  0  0  0  0  0  0
  -34.6894  153.2835    7.6999 H   0  0  0  0  0  0  0  0  0  0  0  0
  -35.1452  152.8040    5.3420 H   0  0  0  0  0  0  0  0  0  0  0  0
  -34.5337  157.4047    6.2707 H   0  0  0  0  0  0  0  0  0  0  0  0
  -38.4397  156.7469    4.7638 H   0  0  0  0  0  0  0  0  0  0  0  0
  -38.0801  152.6291    6.1805 H   0  0  0  0  0  0  0  0  0  0  0  0
  -37.4253  152.5185    4.5017 H   0  0  0  0  0  0  0  0  0  0  0  0
  -37.9410  150.2819    5.5328 H   0  0  0  0  0  0  0  0  0  0  0  0
  -36.2155  150.4870    5.0474 H   0  0  0  0  0  0  0  0  0  0  0  0
  -35.3710  146.0110   10.1280 H   0  0  0  0  0  0  0  0  0  0  0  0
  -34.6285  148.9995   11.4471 H   0  0  0  0  0  0  0  0  0  0  0  0
  -32.8826  148.6501   11.7856 H   0  0  0  0  0  0  0  0  0  0  0  0
  -33.6820  149.4590    9.2160 H   0  0  0  0  0  0  0  0  0  0  0  0
  -33.0334  146.4384   12.2744 H   0  0  0  0  0  0  0  0  0  0  0  0
  -33.6830  145.2239   11.3441 H   0  0  0  0  0  0  0  0  0  0  0  0
  -31.1380  146.9987   10.7596 H   0  0  0  0  0  0  0  0  0  0  0  0
  -31.2460  145.4534   10.1575 H   0  0  0  0  0  0  0  0  0  0  0  0
  -32.3220  147.7744    8.7122 H   0  0  0  0  0  0  0  0  0  0  0  0
  -33.0904  146.3396    8.3690 H   0  0  0  0  0  0  0  0  0  0  0  0
  1  2  2  0
  2  3  1  6
  3  4  1  0
  4  5  1  0
  5  6  2  0
  6  7  1  0
  7  8  1  0
  8  9  1  0
  9 10  1  0
 10 11  1  0
 11 12  1  0
 12 13  2  0
 13 14  1  0
 14 15  2  0
 15 16  1  0
 15 17  1  0
 17 18  2  0
 11 19  1  0
 19 20  1  0
  7 21  2  0
 21 22  1  0
 22 23  1  0
 23 24  1  0
 24 25  1  0
 25 26  1  0
 24 27  1  0
 27 28  1  0
 28 29  1  0
 22 30  2  0
 30  2  1  0
 30  5  1  0
 20  8  1  0
 29 24  1  0
 18 12  1  0
  3 31  1  0
  3 32  1  0
  4 33  1  0
  4 34  1  0
  9 35  1  0
  9 36  1  0
 10 37  1  0
 10 38  1  0
 11 39  1  0
 14 40  1  0
 17 41  1  0
 19 42  1  0
 19 43  1  0
 20 44  1  0
 20 45  1  0
 23 46  1  0
 25 47  1  0
 25 48  1  0
 26 49  1  0
 27 50  1  0
 27 51  1  0
 28 52  1  0
 28 53  1  0
 29 54  1  0
 29 55  1  0
M  END
>  <meeko>  (10) 
{"is_sidechain": false}

>  <vina_affinity_kcal_mol>  (10) 
-6.547

>  <pose_rank>  (10) 
10

$$$$
