
     RDKit          3D

 68 72  0  0  0  0  0  0  0  0999 V2000
   -9.9860    6.4190  -18.1160 C   0  0  0  0  0  0  0  0  0  0  0  0
  -10.4210    5.5360  -16.9760 C   0  0  0  0  0  0  0  0  0  0  0  0
  -11.5180    5.9450  -16.1990 C   0  0  0  0  0  0  0  0  0  0  0  0
  -11.9680    5.1750  -15.1260 C   0  0  0  0  0  0  0  0  0  0  0  0
  -11.3310    3.9820  -14.8120 C   0  0  0  0  0  0  0  0  0  0  0  0
  -11.7090    3.1440  -13.7410 N   0  0  0  0  0  0  0  0  0  0  0  0
  -12.9740    2.9800  -13.2050 C   0  0  0  0  0  0  0  0  0  0  0  0
  -14.0160    3.4830  -13.6090 O   0  0  0  0  0  0  0  0  0  0  0  0
  -13.0440    2.0540  -12.0400 C   0  0  0  0  0  0  0  0  0  0  0  0
  -14.2280    1.8670  -11.3160 C   0  0  0  0  0  0  0  0  0  0  0  0
  -14.2500    0.9880  -10.2310 C   0  0  0  0  0  0  0  0  0  0  0  0
  -13.0990    0.2700   -9.8650 C   0  0  0  0  0  0  0  0  0  0  0  0
  -13.1200   -0.6720   -8.6770 C   0  0  0  0  0  0  0  0  0  0  0  0
  -12.6650   -2.0320   -9.0030 N   0  0  0  0  0  0  0  0  0  0  0  0
  -13.6910   -2.7310   -9.8070 C   0  0  0  0  0  0  0  0  0  0  0  0
  -13.5640   -4.2650   -9.7260 C   0  0  0  0  0  0  0  0  0  0  0  0
  -13.8320   -4.7750   -8.3650 N   0  0  0  0  0  0  0  0  0  0  0  0
  -13.2290   -6.0930   -8.1860 C   0  0  0  0  0  0  0  0  0  0  0  0
  -13.3830   -3.8200   -7.3320 C   0  0  0  0  0  0  0  0  0  0  0  0
  -12.3030   -2.8180   -7.8020 C   0  0  0  0  0  0  0  0  0  0  0  0
  -11.9210    0.4570  -10.6010 C   0  0  0  0  0  0  0  0  0  0  0  0
  -11.8960    1.3370  -11.6860 C   0  0  0  0  0  0  0  0  0  0  0  0
  -10.2330    3.5730  -15.5870 C   0  0  0  0  0  0  0  0  0  0  0  0
   -9.7590    4.3240  -16.6760 C   0  0  0  0  0  0  0  0  0  0  0  0
   -8.6570    3.9200  -17.4440 N   0  0  0  0  0  0  0  0  0  0  0  0
   -7.3580    3.5100  -17.1560 C   0  0  0  0  0  0  0  0  0  0  0  0
   -6.3230    4.3580  -17.1420 N   0  0  0  0  0  0  0  0  0  0  0  0
   -5.1130    3.8490  -16.8570 C   0  0  0  0  0  0  0  0  0  0  0  0
   -4.8920    2.5210  -16.5900 C   0  0  0  0  0  0  0  0  0  0  0  0
   -6.0020    1.7030  -16.6260 C   0  0  0  0  0  0  0  0  0  0  0  0
   -5.9430    0.2540  -16.3650 C   0  0  0  0  0  0  0  0  0  0  0  0
   -4.8710   -0.5560  -16.7700 C   0  0  0  0  0  0  0  0  0  0  0  0
   -4.8670   -1.9240  -16.4910 C   0  0  0  0  0  0  0  0  0  0  0  0
   -5.9450   -2.4590  -15.8100 C   0  0  0  0  0  0  0  0  0  0  0  0
   -7.0010   -1.7310  -15.4020 N   0  0  0  0  0  0  0  0  0  0  0  0
   -6.9750   -0.4040  -15.6940 C   0  0  0  0  0  0  0  0  0  0  0  0
   -7.2310    2.1960  -16.9030 N   0  0  0  0  0  0  0  0  0  0  0  0
   -9.5332    7.3381  -17.7157 H   0  0  0  0  0  0  0  0  0  0  0  0
   -9.2479    5.8850  -18.7324 H   0  0  0  0  0  0  0  0  0  0  0  0
  -10.8592    6.6788  -18.7324 H   0  0  0  0  0  0  0  0  0  0  0  0
  -12.0305    6.8878  -16.4407 H   0  0  0  0  0  0  0  0  0  0  0  0
  -12.8276    5.5132  -14.5287 H   0  0  0  0  0  0  0  0  0  0  0  0
  -10.9740    2.5540  -13.3750 H   0  0  0  0  0  0  0  0  0  0  0  0
  -15.1398    2.4119  -11.6016 H   0  0  0  0  0  0  0  0  0  0  0  0
  -15.1788    0.8563   -9.6565 H   0  0  0  0  0  0  0  0  0  0  0  0
  -12.4633   -0.2624   -7.8954 H   0  0  0  0  0  0  0  0  0  0  0  0
  -14.1650   -0.7502   -8.3425 H   0  0  0  0  0  0  0  0  0  0  0  0
  -14.6858   -2.4399   -9.4387 H   0  0  0  0  0  0  0  0  0  0  0  0
  -13.5462   -2.4398  -10.8578 H   0  0  0  0  0  0  0  0  0  0  0  0
  -14.2850   -4.7177  -10.4226 H   0  0  0  0  0  0  0  0  0  0  0  0
  -12.5305   -4.5333   -9.9903 H   0  0  0  0  0  0  0  0  0  0  0  0
  -13.1305   -6.3083   -7.1118 H   0  0  0  0  0  0  0  0  0  0  0  0
  -13.8679   -6.8554   -8.6557 H   0  0  0  0  0  0  0  0  0  0  0  0
  -12.2344   -6.1080   -8.6557 H   0  0  0  0  0  0  0  0  0  0  0  0
  -14.2580   -3.2461   -6.9928 H   0  0  0  0  0  0  0  0  0  0  0  0
  -12.9224   -4.4206   -6.5338 H   0  0  0  0  0  0  0  0  0  0  0  0
  -12.1076   -2.1147   -6.9791 H   0  0  0  0  0  0  0  0  0  0  0  0
  -11.4236   -3.4182   -8.0786 H   0  0  0  0  0  0  0  0  0  0  0  0
  -11.0099   -0.0928  -10.3225 H   0  0  0  0  0  0  0  0  0  0  0  0
  -10.9694    1.4667  -12.2645 H   0  0  0  0  0  0  0  0  0  0  0  0
   -9.7259    2.6307  -15.3321 H   0  0  0  0  0  0  0  0  0  0  0  0
   -8.7880    3.8670  -18.4420 H   0  0  0  0  0  0  0  0  0  0  0  0
   -4.2524    4.5338  -16.8365 H   0  0  0  0  0  0  0  0  0  0  0  0
   -3.8889    2.1320  -16.3608 H   0  0  0  0  0  0  0  0  0  0  0  0
   -4.0253   -0.1086  -17.3128 H   0  0  0  0  0  0  0  0  0  0  0  0
   -4.0268   -2.5607  -16.8052 H   0  0  0  0  0  0  0  0  0  0  0  0
   -5.9392   -3.5368  -15.5900 H   0  0  0  0  0  0  0  0  0  0  0  0
   -7.8371    0.2005  -15.3758 H   0  0  0  0  0  0  0  0  0  0  0  0
  1  2  1  0
  2  3  1  0
  3  4  2  0
  4  5  1  0
  5  6  1  0
  6  7  1  0
  7  8  2  0
  7  9  1  0
  9 10  1  0
 10 11  2  0
 11 12  1  0
 12 13  1  0
 13 14  1  0
 14 15  1  0
 15 16  1  0
 16 17  1  0
 17 18  1  0
 17 19  1  0
 19 20  1  0
 12 21  2  0
 21 22  1  0
  5 23  2  0
 23 24  1  0
 24 25  1  0
 25 26  1  0
 26 27  2  0
 27 28  1  0
 28 29  2  0
 29 30  1  0
 30 31  1  0
 31 32  1  0
 32 33  2  0
 33 34  1  0
 34 35  2  0
 35 36  1  0
 30 37  2  0
 24  2  2  0
 37 26  1  0
 22  9  2  0
 36 31  2  0
 20 14  1  0
  1 38  1  0
  1 39  1  0
  1 40  1  0
  3 41  1  0
  4 42  1  0
  6 43  1  0
 10 44  1  0
 11 45  1  0
 13 46  1  0
 13 47  1  0
 15 48  1  0
 15 49  1  0
 16 50  1  0
 16 51  1  0
 18 52  1  0
 18 53  1  0
 18 54  1  0
 19 55  1  0
 19 56  1  0
 20 57  1  0
 20 58  1  0
 21 59  1  0
 22 60  1  0
 23 61  1  0
 25 62  1  0
 28 63  1  0
 29 64  1  0
 32 65  1  0
 33 66  1  0
 34 67  1  0
 36 68  1  0
M  END
>  <meeko>  (1) 
{"is_sidechain": false}

>  <vina_affinity_kcal_mol>  (1) 
-10.025

>  <pose_rank>  (1) 
1

$$$$

     RDKit          3D

 68 72  0  0  0  0  0  0  0  0999 V2000
   -9.8410    6.3800  -18.0500 C   0  0  0  0  0  0  0  0  0  0  0  0
  -10.3320    5.5150  -16.9180 C   0  0  0  0  0  0  0  0  0  0  0  0
  -11.4030    5.9840  -16.1390 C   0  0  0  0  0  0  0  0  0  0  0  0
  -11.9020    5.2340  -15.0740 C   0  0  0  0  0  0  0  0  0  0  0  0
  -11.3410    4.0010  -14.7700 C   0  0  0  0  0  0  0  0  0  0  0  0
  -11.7720    3.1790  -13.7060 N   0  0  0  0  0  0  0  0  0  0  0  0
  -13.0630    3.0170  -13.2380 C   0  0  0  0  0  0  0  0  0  0  0  0
  -14.0850    3.5060  -13.7060 O   0  0  0  0  0  0  0  0  0  0  0  0
  -13.1920    2.1090  -12.0610 C   0  0  0  0  0  0  0  0  0  0  0  0
  -14.3990    1.9700  -11.3660 C   0  0  0  0  0  0  0  0  0  0  0  0
  -14.4760    1.1070  -10.2700 C   0  0  0  0  0  0  0  0  0  0  0  0
  -13.3580    0.3600   -9.8650 C   0  0  0  0  0  0  0  0  0  0  0  0
  -13.4390   -0.5640   -8.6650 C   0  0  0  0  0  0  0  0  0  0  0  0
  -14.8140   -0.7920   -8.1960 N   0  0  0  0  0  0  0  0  0  0  0  0
  -14.9380   -0.3930   -6.7770 C   0  0  0  0  0  0  0  0  0  0  0  0
  -16.1230   -1.0800   -6.0700 C   0  0  0  0  0  0  0  0  0  0  0  0
  -15.9400   -2.5430   -5.9690 N   0  0  0  0  0  0  0  0  0  0  0  0
  -17.2270   -3.2070   -5.7830 C   0  0  0  0  0  0  0  0  0  0  0  0
  -15.2080   -3.0770   -7.1360 C   0  0  0  0  0  0  0  0  0  0  0  0
  -15.2650   -2.1870   -8.3990 C   0  0  0  0  0  0  0  0  0  0  0  0
  -12.1560    0.4990  -10.5730 C   0  0  0  0  0  0  0  0  0  0  0  0
  -12.0760    1.3630  -11.6690 C   0  0  0  0  0  0  0  0  0  0  0  0
  -10.2680    3.5330  -15.5460 C   0  0  0  0  0  0  0  0  0  0  0  0
   -9.7470    4.2620  -16.6280 C   0  0  0  0  0  0  0  0  0  0  0  0
   -8.6690    3.7980  -17.3970 N   0  0  0  0  0  0  0  0  0  0  0  0
   -7.3660    3.3980  -17.1190 C   0  0  0  0  0  0  0  0  0  0  0  0
   -6.3390    4.2550  -17.1050 N   0  0  0  0  0  0  0  0  0  0  0  0
   -5.1220    3.7560  -16.8300 C   0  0  0  0  0  0  0  0  0  0  0  0
   -4.8870    2.4290  -16.5730 C   0  0  0  0  0  0  0  0  0  0  0  0
   -5.9900    1.6010  -16.6080 C   0  0  0  0  0  0  0  0  0  0  0  0
   -5.9150    0.1510  -16.3570 C   0  0  0  0  0  0  0  0  0  0  0  0
   -4.8150   -0.6380  -16.7280 C   0  0  0  0  0  0  0  0  0  0  0  0
   -4.7980   -2.0080  -16.4600 C   0  0  0  0  0  0  0  0  0  0  0  0
   -5.8910   -2.5670  -15.8230 C   0  0  0  0  0  0  0  0  0  0  0  0
   -6.9740   -1.8600  -15.4480 N   0  0  0  0  0  0  0  0  0  0  0  0
   -6.9600   -0.5300  -15.7280 C   0  0  0  0  0  0  0  0  0  0  0  0
   -7.2250    2.0840  -16.8740 N   0  0  0  0  0  0  0  0  0  0  0  0
   -9.3369    7.2680  -17.6409 H   0  0  0  0  0  0  0  0  0  0  0  0
   -9.1327    5.8083  -18.6677 H   0  0  0  0  0  0  0  0  0  0  0  0
  -10.6949    6.6951  -18.6677 H   0  0  0  0  0  0  0  0  0  0  0  0
  -11.8556    6.9589  -16.3728 H   0  0  0  0  0  0  0  0  0  0  0  0
  -12.7401    5.6196  -14.4749 H   0  0  0  0  0  0  0  0  0  0  0  0
  -11.0540    2.6000  -13.2900 H   0  0  0  0  0  0  0  0  0  0  0  0
  -15.2855    2.5393  -11.6822 H   0  0  0  0  0  0  0  0  0  0  0  0
  -15.4228    1.0116   -9.7182 H   0  0  0  0  0  0  0  0  0  0  0  0
  -12.9994   -1.5338   -8.9412 H   0  0  0  0  0  0  0  0  0  0  0  0
  -12.8917   -0.0786   -7.8435 H   0  0  0  0  0  0  0  0  0  0  0  0
  -14.0098   -0.6636   -6.2524 H   0  0  0  0  0  0  0  0  0  0  0  0
  -15.1173    0.6920   -6.7502 H   0  0  0  0  0  0  0  0  0  0  0  0
  -16.2202   -0.6642   -5.0563 H   0  0  0  0  0  0  0  0  0  0  0  0
  -17.0275   -0.8930   -6.6675 H   0  0  0  0  0  0  0  0  0  0  0  0
  -17.4328   -3.3132   -4.7076 H   0  0  0  0  0  0  0  0  0  0  0  0
  -18.0207   -2.6059   -6.2506 H   0  0  0  0  0  0  0  0  0  0  0  0
  -17.1971   -4.2022   -6.2506 H   0  0  0  0  0  0  0  0  0  0  0  0
  -14.1526   -3.1999   -6.8512 H   0  0  0  0  0  0  0  0  0  0  0  0
  -15.6985   -4.0249   -7.4024 H   0  0  0  0  0  0  0  0  0  0  0  0
  -14.6265   -2.6445   -9.1691 H   0  0  0  0  0  0  0  0  0  0  0  0
  -16.3241   -2.1307   -8.6907 H   0  0  0  0  0  0  0  0  0  0  0  0
  -11.2702   -0.0754  -10.2641 H   0  0  0  0  0  0  0  0  0  0  0  0
  -11.1316    1.4564  -12.2252 H   0  0  0  0  0  0  0  0  0  0  0  0
   -9.8191    2.5600  -15.2975 H   0  0  0  0  0  0  0  0  0  0  0  0
   -8.8300    3.6770  -18.3850 H   0  0  0  0  0  0  0  0  0  0  0  0
   -4.2680    4.4490  -16.8099 H   0  0  0  0  0  0  0  0  0  0  0  0
   -3.8791    2.0479  -16.3522 H   0  0  0  0  0  0  0  0  0  0  0  0
   -3.9574   -0.1720  -17.2352 H   0  0  0  0  0  0  0  0  0  0  0  0
   -3.9362   -2.6278  -16.7485 H   0  0  0  0  0  0  0  0  0  0  0  0
   -5.8748   -3.6464  -15.6115 H   0  0  0  0  0  0  0  0  0  0  0  0
   -7.8428    0.0575  -15.4357 H   0  0  0  0  0  0  0  0  0  0  0  0
  1  2  1  0
  2  3  1  0
  3  4  2  0
  4  5  1  0
  5  6  1  0
  6  7  1  0
  7  8  2  0
  7  9  1  0
  9 10  1  0
 10 11  2  0
 11 12  1  0
 12 13  1  0
 13 14  1  0
 14 15  1  0
 15 16  1  0
 16 17  1  0
 17 18  1  0
 17 19  1  0
 19 20  1  0
 12 21  2  0
 21 22  1  0
  5 23  2  0
 23 24  1  0
 24 25  1  0
 25 26  1  0
 26 27  2  0
 27 28  1  0
 28 29  2  0
 29 30  1  0
 30 31  1  0
 31 32  1  0
 32 33  2  0
 33 34  1  0
 34 35  2  0
 35 36  1  0
 30 37  2  0
 24  2  2  0
 37 26  1  0
 22  9  2  0
 36 31  2  0
 20 14  1  0
  1 38  1  0
  1 39  1  0
  1 40  1  0
  3 41  1  0
  4 42  1  0
  6 43  1  0
 10 44  1  0
 11 45  1  0
 13 46  1  0
 13 47  1  0
 15 48  1  0
 15 49  1  0
 16 50  1  0
 16 51  1  0
 18 52  1  0
 18 53  1  0
 18 54  1  0
 19 55  1  0
 19 56  1  0
 20 57  1  0
 20 58  1  0
 21 59  1  0
 22 60  1  0
 23 61  1  0
 25 62  1  0
 28 63  1  0
 29 64  1  0
 32 65  1  0
 33 66  1  0
 34 67  1  0
 36 68  1  0
M  END
>  <meeko>  (2) 
{"is_sidechain": false}

>  <vina_affinity_kcal_mol>  (2) 
-9.815

>  <pose_rank>  (2) 
2

$$$$

     RDKit          3D

 68 72  0  0  0  0  0  0  0  0999 V2000
   -9.3640    6.1170  -17.7470 C   0  0  0  0  0  0  0  0  0  0  0  0
   -9.9160    5.2540  -16.6440 C   0  0  0  0  0  0  0  0  0  0  0  0
  -11.1480    5.6140  -16.0700 C   0  0  0  0  0  0  0  0  0  0  0  0
  -11.7110    4.8600  -15.0410 C   0  0  0  0  0  0  0  0  0  0  0  0
  -11.0560    3.7300  -14.5680 C   0  0  0  0  0  0  0  0  0  0  0  0
  -11.5450    2.9130  -13.5260 N   0  0  0  0  0  0  0  0  0  0  0  0
  -12.8420    2.8350  -13.0550 C   0  0  0  0  0  0  0  0  0  0  0  0
  -13.8260    3.4120  -13.5030 O   0  0  0  0  0  0  0  0  0  0  0  0
  -13.0340    1.9070  -11.9040 C   0  0  0  0  0  0  0  0  0  0  0  0
  -11.9910    1.1090  -11.4170 C   0  0  0  0  0  0  0  0  0  0  0  0
  -12.2150    0.2550  -10.3350 C   0  0  0  0  0  0  0  0  0  0  0  0
  -13.4730    0.1970   -9.7130 C   0  0  0  0  0  0  0  0  0  0  0  0
  -13.7180   -0.7440   -8.5490 C   0  0  0  0  0  0  0  0  0  0  0  0
  -15.1370   -0.8570   -8.1800 N   0  0  0  0  0  0  0  0  0  0  0  0
  -15.3520   -0.3090   -6.8230 C   0  0  0  0  0  0  0  0  0  0  0  0
  -16.6270   -0.8620   -6.1560 C   0  0  0  0  0  0  0  0  0  0  0  0
  -16.5350   -2.3140   -5.8960 N   0  0  0  0  0  0  0  0  0  0  0  0
  -17.8680   -2.8940   -5.7570 C   0  0  0  0  0  0  0  0  0  0  0  0
  -15.7420   -2.9990   -6.9370 C   0  0  0  0  0  0  0  0  0  0  0  0
  -15.6480   -2.2420   -8.2820 C   0  0  0  0  0  0  0  0  0  0  0  0
  -14.5090    1.0050  -10.2030 C   0  0  0  0  0  0  0  0  0  0  0  0
  -14.2880    1.8600  -11.2850 C   0  0  0  0  0  0  0  0  0  0  0  0
   -9.8240    3.3700  -15.1400 C   0  0  0  0  0  0  0  0  0  0  0  0
   -9.2340    4.1060  -16.1800 C   0  0  0  0  0  0  0  0  0  0  0  0
   -7.9990    3.7520  -16.7440 N   0  0  0  0  0  0  0  0  0  0  0  0
   -7.3100    2.5560  -16.9250 C   0  0  0  0  0  0  0  0  0  0  0  0
   -6.6970    2.2460  -18.0730 N   0  0  0  0  0  0  0  0  0  0  0  0
   -6.0680    1.0610  -18.1360 C   0  0  0  0  0  0  0  0  0  0  0  0
   -6.0300    0.1660  -17.0960 C   0  0  0  0  0  0  0  0  0  0  0  0
   -6.6860    0.5480  -15.9440 C   0  0  0  0  0  0  0  0  0  0  0  0
   -6.7440   -0.2930  -14.7360 C   0  0  0  0  0  0  0  0  0  0  0  0
   -7.2850    0.1470  -13.5180 C   0  0  0  0  0  0  0  0  0  0  0  0
   -7.3160   -0.6950  -12.4060 C   0  0  0  0  0  0  0  0  0  0  0  0
   -6.8000   -1.9720  -12.5330 C   0  0  0  0  0  0  0  0  0  0  0  0
   -6.2650   -2.4460  -13.6750 N   0  0  0  0  0  0  0  0  0  0  0  0
   -6.2450   -1.5980  -14.7360 C   0  0  0  0  0  0  0  0  0  0  0  0
   -7.3180    1.7400  -15.8570 N   0  0  0  0  0  0  0  0  0  0  0  0
   -8.8201    6.9674  -17.3099 H   0  0  0  0  0  0  0  0  0  0  0  0
   -8.6777    5.5232  -18.3686 H   0  0  0  0  0  0  0  0  0  0  0  0
  -10.1909    6.4911  -18.3686 H   0  0  0  0  0  0  0  0  0  0  0  0
  -11.6766    6.5054  -16.4389 H   0  0  0  0  0  0  0  0  0  0  0  0
  -12.6745    5.1602  -14.6035 H   0  0  0  0  0  0  0  0  0  0  0  0
  -10.8710    2.2700  -13.1300 H   0  0  0  0  0  0  0  0  0  0  0  0
  -10.9971    1.1549  -11.8860 H   0  0  0  0  0  0  0  0  0  0  0  0
  -11.3963   -0.3799   -9.9654 H   0  0  0  0  0  0  0  0  0  0  0  0
  -13.3483   -1.7429   -8.8240 H   0  0  0  0  0  0  0  0  0  0  0  0
  -13.1874   -0.3302   -7.6788 H   0  0  0  0  0  0  0  0  0  0  0  0
  -14.4857   -0.5687   -6.1968 H   0  0  0  0  0  0  0  0  0  0  0  0
  -15.4714    0.7803   -6.9184 H   0  0  0  0  0  0  0  0  0  0  0  0
  -16.7820   -0.3399   -5.2003 H   0  0  0  0  0  0  0  0  0  0  0  0
  -17.4686   -0.6944   -6.8442 H   0  0  0  0  0  0  0  0  0  0  0  0
  -18.1122   -3.0002   -4.6897 H   0  0  0  0  0  0  0  0  0  0  0  0
  -18.6063   -2.2358   -6.2383 H   0  0  0  0  0  0  0  0  0  0  0  0
  -17.8896   -3.8829   -6.2383 H   0  0  0  0  0  0  0  0  0  0  0  0
  -14.7214   -3.1410   -6.5520 H   0  0  0  0  0  0  0  0  0  0  0  0
  -16.2607   -3.9455   -7.1494 H   0  0  0  0  0  0  0  0  0  0  0  0
  -14.9769   -2.8063   -8.9462 H   0  0  0  0  0  0  0  0  0  0  0  0
  -16.6757   -2.1654   -8.6668 H   0  0  0  0  0  0  0  0  0  0  0  0
  -15.5023    0.9652   -9.7321 H   0  0  0  0  0  0  0  0  0  0  0  0
  -15.1039    2.4997  -11.6524 H   0  0  0  0  0  0  0  0  0  0  0  0
   -9.3029    2.4793  -14.7592 H   0  0  0  0  0  0  0  0  0  0  0  0
   -7.4550    4.4920  -17.1590 H   0  0  0  0  0  0  0  0  0  0  0  0
   -5.5555    0.7932  -19.0718 H   0  0  0  0  0  0  0  0  0  0  0  0
   -5.5075   -0.7986  -17.1763 H   0  0  0  0  0  0  0  0  0  0  0  0
   -7.6891    1.1671  -13.4393 H   0  0  0  0  0  0  0  0  0  0  0  0
   -7.7406   -0.3515  -11.4512 H   0  0  0  0  0  0  0  0  0  0  0  0
   -6.8279   -2.6352  -11.6558 H   0  0  0  0  0  0  0  0  0  0  0  0
   -5.7998   -1.9688  -15.6710 H   0  0  0  0  0  0  0  0  0  0  0  0
  1  2  1  0
  2  3  1  0
  3  4  2  0
  4  5  1  0
  5  6  1  0
  6  7  1  0
  7  8  2  0
  7  9  1  0
  9 10  1  0
 10 11  2  0
 11 12  1  0
 12 13  1  0
 13 14  1  0
 14 15  1  0
 15 16  1  0
 16 17  1  0
 17 18  1  0
 17 19  1  0
 19 20  1  0
 12 21  2  0
 21 22  1  0
  5 23  2  0
 23 24  1  0
 24 25  1  0
 25 26  1  0
 26 27  2  0
 27 28  1  0
 28 29  2  0
 29 30  1  0
 30 31  1  0
 31 32  1  0
 32 33  2  0
 33 34  1  0
 34 35  2  0
 35 36  1  0
 30 37  2  0
 24  2  2  0
 37 26  1  0
 22  9  2  0
 36 31  2  0
 20 14  1  0
  1 38  1  0
  1 39  1  0
  1 40  1  0
  3 41  1  0
  4 42  1  0
  6 43  1  0
 10 44  1  0
 11 45  1  0
 13 46  1  0
 13 47  1  0
 15 48  1  0
 15 49  1  0
 16 50  1  0
 16 51  1  0
 18 52  1  0
 18 53  1  0
 18 54  1  0
 19 55  1  0
 19 56  1  0
 20 57  1  0
 20 58  1  0
 21 59  1  0
 22 60  1  0
 23 61  1  0
 25 62  1  0
 28 63  1  0
 29 64  1  0
 32 65  1  0
 33 66  1  0
 34 67  1  0
 36 68  1  0
M  END
>  <meeko>  (3) 
{"is_sidechain": false}

>  <vina_affinity_kcal_mol>  (3) 
-9.629

>  <pose_rank>  (3) 
3

$$$$

     RDKit          3D

 68 72  0  0  0  0  0  0  0  0999 V2000
   -5.2650    2.5730  -16.4930 C   0  0  0  0  0  0  0  0  0  0  0  0
   -6.2500    2.0380  -15.4880 C   0  0  0  0  0  0  0  0  0  0  0  0
   -5.8040    1.0750  -14.5670 C   0  0  0  0  0  0  0  0  0  0  0  0
   -6.6680    0.5350  -13.6140 C   0  0  0  0  0  0  0  0  0  0  0  0
   -7.9920    0.9500  -13.5620 C   0  0  0  0  0  0  0  0  0  0  0  0
   -8.9390    0.4530  -12.6400 N   0  0  0  0  0  0  0  0  0  0  0  0
  -10.0700   -0.2930  -12.9140 C   0  0  0  0  0  0  0  0  0  0  0  0
  -10.4240   -0.7220  -14.0060 O   0  0  0  0  0  0  0  0  0  0  0  0
  -10.9020   -0.6270  -11.7230 C   0  0  0  0  0  0  0  0  0  0  0  0
  -11.0240   -1.9410  -11.2540 C   0  0  0  0  0  0  0  0  0  0  0  0
  -11.8120   -2.2100  -10.1330 C   0  0  0  0  0  0  0  0  0  0  0  0
  -12.4740   -1.1740   -9.4550 C   0  0  0  0  0  0  0  0  0  0  0  0
  -13.3430   -1.4700   -8.2480 C   0  0  0  0  0  0  0  0  0  0  0  0
  -14.7520   -1.0950   -8.4380 N   0  0  0  0  0  0  0  0  0  0  0  0
  -15.1870   -0.1900   -7.3520 C   0  0  0  0  0  0  0  0  0  0  0  0
  -16.7160   -0.1910   -7.1570 C   0  0  0  0  0  0  0  0  0  0  0  0
  -17.2190   -1.5010   -6.6930 N   0  0  0  0  0  0  0  0  0  0  0  0
  -18.6390   -1.6410   -6.9990 C   0  0  0  0  0  0  0  0  0  0  0  0
  -16.4230   -2.6130   -7.2510 C   0  0  0  0  0  0  0  0  0  0  0  0
  -15.6480   -2.2690   -8.5450 C   0  0  0  0  0  0  0  0  0  0  0  0
  -12.3390    0.1400   -9.9270 C   0  0  0  0  0  0  0  0  0  0  0  0
  -11.5520    0.4120  -11.0480 C   0  0  0  0  0  0  0  0  0  0  0  0
   -8.4400    1.9110  -14.4840 C   0  0  0  0  0  0  0  0  0  0  0  0
   -7.5930    2.4770  -15.4520 C   0  0  0  0  0  0  0  0  0  0  0  0
   -8.0430    3.4290  -16.3780 N   0  0  0  0  0  0  0  0  0  0  0  0
   -9.1210    4.3070  -16.4380 C   0  0  0  0  0  0  0  0  0  0  0  0
  -10.1390    4.2550  -15.5700 N   0  0  0  0  0  0  0  0  0  0  0  0
  -11.1290    5.1480  -15.7260 C   0  0  0  0  0  0  0  0  0  0  0  0
  -11.1490    6.0920  -16.7220 C   0  0  0  0  0  0  0  0  0  0  0  0
  -10.0720    6.0860  -17.5840 C   0  0  0  0  0  0  0  0  0  0  0  0
   -9.9350    7.0300  -18.7070 C   0  0  0  0  0  0  0  0  0  0  0  0
   -9.4350    8.3330  -18.5600 C   0  0  0  0  0  0  0  0  0  0  0  0
   -9.3250    9.1830  -19.6620 C   0  0  0  0  0  0  0  0  0  0  0  0
   -9.7210    8.7100  -20.8990 C   0  0  0  0  0  0  0  0  0  0  0  0
  -10.2120    7.4720  -21.0990 N   0  0  0  0  0  0  0  0  0  0  0  0
  -10.3110    6.6730  -20.0040 C   0  0  0  0  0  0  0  0  0  0  0  0
   -9.0600    5.2010  -17.4390 N   0  0  0  0  0  0  0  0  0  0  0  0
   -4.4167    3.0337  -15.9656 H   0  0  0  0  0  0  0  0  0  0  0  0
   -4.9006    1.7488  -17.1239 H   0  0  0  0  0  0  0  0  0  0  0  0
   -5.7580    3.3273  -17.1239 H   0  0  0  0  0  0  0  0  0  0  0  0
   -4.7563    0.7414  -14.5980 H   0  0  0  0  0  0  0  0  0  0  0  0
   -6.3002   -0.2199  -12.9035 H   0  0  0  0  0  0  0  0  0  0  0  0
   -8.7180    0.6160  -11.6660 H   0  0  0  0  0  0  0  0  0  0  0  0
  -10.4998   -2.7601  -11.7680 H   0  0  0  0  0  0  0  0  0  0  0  0
  -11.9153   -3.2457   -9.7770 H   0  0  0  0  0  0  0  0  0  0  0  0
  -13.2942   -2.5489   -8.0392 H   0  0  0  0  0  0  0  0  0  0  0  0
  -12.9559   -0.8675   -7.4130 H   0  0  0  0  0  0  0  0  0  0  0  0
  -14.7119   -0.5118   -6.4136 H   0  0  0  0  0  0  0  0  0  0  0  0
  -14.8869    0.8314   -7.6289 H   0  0  0  0  0  0  0  0  0  0  0  0
  -16.9784    0.5736   -6.4110 H   0  0  0  0  0  0  0  0  0  0  0  0
  -17.1807    0.0234   -8.1307 H   0  0  0  0  0  0  0  0  0  0  0  0
  -19.2122   -1.6975   -6.0618 H   0  0  0  0  0  0  0  0  0  0  0  0
  -18.9757   -0.7717   -7.5829 H   0  0  0  0  0  0  0  0  0  0  0  0
  -18.7995   -2.5593   -7.5829 H   0  0  0  0  0  0  0  0  0  0  0  0
  -15.6948   -2.9287   -6.4894 H   0  0  0  0  0  0  0  0  0  0  0  0
  -17.1396   -3.4033   -7.5194 H   0  0  0  0  0  0  0  0  0  0  0  0
  -15.0375   -3.1416   -8.8206 H   0  0  0  0  0  0  0  0  0  0  0  0
  -16.4051   -2.0132   -9.3009 H   0  0  0  0  0  0  0  0  0  0  0  0
  -12.8566    0.9618   -9.4106 H   0  0  0  0  0  0  0  0  0  0  0  0
  -11.4426    1.4477  -11.4019 H   0  0  0  0  0  0  0  0  0  0  0  0
   -9.4915    2.2318  -14.4467 H   0  0  0  0  0  0  0  0  0  0  0  0
   -7.4740    3.5770  -17.1980 H   0  0  0  0  0  0  0  0  0  0  0  0
  -11.9698    5.1217  -15.0172 H   0  0  0  0  0  0  0  0  0  0  0  0
  -11.9750    6.8109  -16.8267 H   0  0  0  0  0  0  0  0  0  0  0  0
   -9.1264    8.6884  -17.5658 H   0  0  0  0  0  0  0  0  0  0  0  0
   -8.9327   10.2044  -19.5487 H   0  0  0  0  0  0  0  0  0  0  0  0
   -9.6303    9.3805  -21.7663 H   0  0  0  0  0  0  0  0  0  0  0  0
  -10.7206    5.6628  -20.1512 H   0  0  0  0  0  0  0  0  0  0  0  0
  1  2  1  0
  2  3  1  0
  3  4  2  0
  4  5  1  0
  5  6  1  0
  6  7  1  0
  7  8  2  0
  7  9  1  0
  9 10  1  0
 10 11  2  0
 11 12  1  0
 12 13  1  0
 13 14  1  0
 14 15  1  0
 15 16  1  0
 16 17  1  0
 17 18  1  0
 17 19  1  0
 19 20  1  0
 12 21  2  0
 21 22  1  0
  5 23  2  0
 23 24  1  0
 24 25  1  0
 25 26  1  0
 26 27  2  0
 27 28  1  0
 28 29  2  0
 29 30  1  0
 30 31  1  0
 31 32  1  0
 32 33  2  0
 33 34  1  0
 34 35  2  0
 35 36  1  0
 30 37  2  0
 24  2  2  0
 37 26  1  0
 22  9  2  0
 36 31  2  0
 20 14  1  0
  1 38  1  0
  1 39  1  0
  1 40  1  0
  3 41  1  0
  4 42  1  0
  6 43  1  0
 10 44  1  0
 11 45  1  0
 13 46  1  0
 13 47  1  0
 15 48  1  0
 15 49  1  0
 16 50  1  0
 16 51  1  0
 18 52  1  0
 18 53  1  0
 18 54  1  0
 19 55  1  0
 19 56  1  0
 20 57  1  0
 20 58  1  0
 21 59  1  0
 22 60  1  0
 23 61  1  0
 25 62  1  0
 28 63  1  0
 29 64  1  0
 32 65  1  0
 33 66  1  0
 34 67  1  0
 36 68  1  0
M  END
>  <meeko>  (4) 
{"is_sidechain": false}

>  <vina_affinity_kcal_mol>  (4) 
-9.603

>  <pose_rank>  (4) 
4

$$$$

     RDKit          3D

 68 72  0  0  0  0  0  0  0  0999 V2000
   -4.7980    2.2090  -16.6560 C   0  0  0  0  0  0  0  0  0  0  0  0
   -5.8290    1.7530  -15.6580 C   0  0  0  0  0  0  0  0  0  0  0  0
   -5.4860    0.7180  -14.7720 C   0  0  0  0  0  0  0  0  0  0  0  0
   -6.3970    0.2470  -13.8260 C   0  0  0  0  0  0  0  0  0  0  0  0
   -7.6670    0.8040  -13.7470 C   0  0  0  0  0  0  0  0  0  0  0  0
   -8.6560    0.3850  -12.8310 N   0  0  0  0  0  0  0  0  0  0  0  0
   -9.9040   -0.1360  -13.1180 C   0  0  0  0  0  0  0  0  0  0  0  0
  -10.3560   -0.3990  -14.2270 O   0  0  0  0  0  0  0  0  0  0  0  0
  -10.7440   -0.4400  -11.9250 C   0  0  0  0  0  0  0  0  0  0  0  0
  -11.4960    0.5510  -11.2810 C   0  0  0  0  0  0  0  0  0  0  0  0
  -12.2720    0.2230  -10.1670 C   0  0  0  0  0  0  0  0  0  0  0  0
  -12.3230   -1.0970   -9.6920 C   0  0  0  0  0  0  0  0  0  0  0  0
  -13.1530   -1.4490   -8.4720 C   0  0  0  0  0  0  0  0  0  0  0  0
  -14.5580   -1.0280   -8.5810 N   0  0  0  0  0  0  0  0  0  0  0  0
  -14.9390   -0.2230   -7.4000 C   0  0  0  0  0  0  0  0  0  0  0  0
  -16.4620   -0.2100   -7.1580 C   0  0  0  0  0  0  0  0  0  0  0  0
  -16.9810   -1.5470   -6.8070 N   0  0  0  0  0  0  0  0  0  0  0  0
  -18.4130   -1.6270   -7.0810 C   0  0  0  0  0  0  0  0  0  0  0  0
  -16.2290   -2.6170   -7.4940 C   0  0  0  0  0  0  0  0  0  0  0  0
  -15.4840   -2.1660   -8.7720 C   0  0  0  0  0  0  0  0  0  0  0  0
  -11.5740   -2.0840  -10.3480 C   0  0  0  0  0  0  0  0  0  0  0  0
  -10.7960   -1.7580  -11.4620 C   0  0  0  0  0  0  0  0  0  0  0  0
   -8.0120    1.8370  -14.6340 C   0  0  0  0  0  0  0  0  0  0  0  0
   -7.1160    2.3360  -15.5930 C   0  0  0  0  0  0  0  0  0  0  0  0
   -7.4640    3.3620  -16.4850 N   0  0  0  0  0  0  0  0  0  0  0  0
   -8.5040    4.2830  -16.5630 C   0  0  0  0  0  0  0  0  0  0  0  0
   -8.4340    5.3850  -17.3190 N   0  0  0  0  0  0  0  0  0  0  0  0
   -9.4960    6.2060  -17.3120 C   0  0  0  0  0  0  0  0  0  0  0  0
  -10.6290    5.9750  -16.5740 C   0  0  0  0  0  0  0  0  0  0  0  0
  -10.6330    4.8240  -15.8140 C   0  0  0  0  0  0  0  0  0  0  0  0
  -11.7680    4.4240  -14.9640 C   0  0  0  0  0  0  0  0  0  0  0  0
  -11.6630    3.4710  -13.9400 C   0  0  0  0  0  0  0  0  0  0  0  0
  -12.7730    3.1340  -13.1630 C   0  0  0  0  0  0  0  0  0  0  0  0
  -13.9760    3.7620  -13.4280 C   0  0  0  0  0  0  0  0  0  0  0  0
  -14.1360    4.6810  -14.4000 N   0  0  0  0  0  0  0  0  0  0  0  0
  -13.0370    4.9810  -15.1400 C   0  0  0  0  0  0  0  0  0  0  0  0
   -9.5770    3.9780  -15.8130 N   0  0  0  0  0  0  0  0  0  0  0  0
   -3.9182    2.5981  -16.1225 H   0  0  0  0  0  0  0  0  0  0  0  0
   -4.4980    1.3596  -17.2873 H   0  0  0  0  0  0  0  0  0  0  0  0
   -5.2246    3.0024  -17.2873 H   0  0  0  0  0  0  0  0  0  0  0  0
   -4.4821    0.2714  -14.8250 H   0  0  0  0  0  0  0  0  0  0  0  0
   -6.1094   -0.5656  -13.1426 H   0  0  0  0  0  0  0  0  0  0  0  0
   -8.3830    0.4180  -11.8570 H   0  0  0  0  0  0  0  0  0  0  0  0
  -11.4754    1.5863  -11.6522 H   0  0  0  0  0  0  0  0  0  0  0  0
  -12.8495    1.0076   -9.6563 H   0  0  0  0  0  0  0  0  0  0  0  0
  -13.1254   -2.5400   -8.3343 H   0  0  0  0  0  0  0  0  0  0  0  0
  -12.7180   -0.9112   -7.6167 H   0  0  0  0  0  0  0  0  0  0  0  0
  -14.4447   -0.6441   -6.5121 H   0  0  0  0  0  0  0  0  0  0  0  0
  -14.6223    0.8137   -7.5869 H   0  0  0  0  0  0  0  0  0  0  0  0
  -16.6841    0.4841   -6.3340 H   0  0  0  0  0  0  0  0  0  0  0  0
  -16.9501    0.1081   -8.0910 H   0  0  0  0  0  0  0  0  0  0  0  0
  -18.9669   -1.6579   -6.1311 H   0  0  0  0  0  0  0  0  0  0  0  0
  -18.7255   -0.7449   -7.6591 H   0  0  0  0  0  0  0  0  0  0  0  0
  -18.6253   -2.5384   -7.6591 H   0  0  0  0  0  0  0  0  0  0  0  0
  -15.4870   -3.0207   -6.7894 H   0  0  0  0  0  0  0  0  0  0  0  0
  -16.9721   -3.3620   -7.8145 H   0  0  0  0  0  0  0  0  0  0  0  0
  -14.9029   -3.0205   -9.1490 H   0  0  0  0  0  0  0  0  0  0  0  0
  -16.2563   -1.8222   -9.4758 H   0  0  0  0  0  0  0  0  0  0  0  0
  -11.5989   -3.1215   -9.9835 H   0  0  0  0  0  0  0  0  0  0  0  0
  -10.2218   -2.5422  -11.9771 H   0  0  0  0  0  0  0  0  0  0  0  0
   -9.0211    2.2710  -14.5752 H   0  0  0  0  0  0  0  0  0  0  0  0
   -6.8320    3.5380  -17.2510 H   0  0  0  0  0  0  0  0  0  0  0  0
   -9.4555    7.1137  -17.9320 H   0  0  0  0  0  0  0  0  0  0  0  0
  -11.4840    6.6669  -16.5875 H   0  0  0  0  0  0  0  0  0  0  0  0
  -10.6957    2.9840  -13.7471 H   0  0  0  0  0  0  0  0  0  0  0  0
  -12.6924    2.3870  -12.3595 H   0  0  0  0  0  0  0  0  0  0  0  0
  -14.8485    3.4972  -12.8127 H   0  0  0  0  0  0  0  0  0  0  0  0
  -13.1560    5.7230  -15.9433 H   0  0  0  0  0  0  0  0  0  0  0  0
  1  2  1  0
  2  3  1  0
  3  4  2  0
  4  5  1  0
  5  6  1  0
  6  7  1  0
  7  8  2  0
  7  9  1  0
  9 10  1  0
 10 11  2  0
 11 12  1  0
 12 13  1  0
 13 14  1  0
 14 15  1  0
 15 16  1  0
 16 17  1  0
 17 18  1  0
 17 19  1  0
 19 20  1  0
 12 21  2  0
 21 22  1  0
  5 23  2  0
 23 24  1  0
 24 25  1  0
 25 26  1  0
 26 27  2  0
 27 28  1  0
 28 29  2  0
 29 30  1  0
 30 31  1  0
 31 32  1  0
 32 33  2  0
 33 34  1  0
 34 35  2  0
 35 36  1  0
 30 37  2  0
 24  2  2  0
 37 26  1  0
 22  9  2  0
 36 31  2  0
 20 14  1  0
  1 38  1  0
  1 39  1  0
  1 40  1  0
  3 41  1  0
  4 42  1  0
  6 43  1  0
 10 44  1  0
 11 45  1  0
 13 46  1  0
 13 47  1  0
 15 48  1  0
 15 49  1  0
 16 50  1  0
 16 51  1  0
 18 52  1  0
 18 53  1  0
 18 54  1  0
 19 55  1  0
 19 56  1  0
 20 57  1  0
 20 58  1  0
 21 59  1  0
 22 60  1  0
 23 61  1  0
 25 62  1  0
 28 63  1  0
 29 64  1  0
 32 65  1  0
 33 66  1  0
 34 67  1  0
 36 68  1  0
M  END
>  <meeko>  (5) 
{"is_sidechain": false}

>  <vina_affinity_kcal_mol>  (5) 
-9.585

>  <pose_rank>  (5) 
5

$$$$

     RDKit          3D

 68 72  0  0  0  0  0  0  0  0999 V2000
  -10.1670    6.4800  -18.2130 C   0  0  0  0  0  0  0  0  0  0  0  0
  -10.5540    5.6020  -17.0520 C   0  0  0  0  0  0  0  0  0  0  0  0
  -11.6670    5.9730  -16.2780 C   0  0  0  0  0  0  0  0  0  0  0  0
  -12.0740    5.2060  -15.1870 C   0  0  0  0  0  0  0  0  0  0  0  0
  -11.3780    4.0520  -14.8510 C   0  0  0  0  0  0  0  0  0  0  0  0
  -11.7110    3.2200  -13.7600 N   0  0  0  0  0  0  0  0  0  0  0  0
  -12.9730    2.9440  -13.2650 C   0  0  0  0  0  0  0  0  0  0  0  0
  -14.0440    3.3180  -13.7280 O   0  0  0  0  0  0  0  0  0  0  0  0
  -12.9940    2.0600  -12.0650 C   0  0  0  0  0  0  0  0  0  0  0  0
  -14.1530    1.8820  -11.3000 C   0  0  0  0  0  0  0  0  0  0  0  0
  -14.1290    1.0430  -10.1840 C   0  0  0  0  0  0  0  0  0  0  0  0
  -12.9570    0.3580   -9.8260 C   0  0  0  0  0  0  0  0  0  0  0  0
  -12.9290   -0.5400   -8.6030 C   0  0  0  0  0  0  0  0  0  0  0  0
  -11.8610   -0.1960   -7.6530 N   0  0  0  0  0  0  0  0  0  0  0  0
  -11.2230   -1.4280   -7.1390 C   0  0  0  0  0  0  0  0  0  0  0  0
  -10.5130   -1.2090   -5.7880 C   0  0  0  0  0  0  0  0  0  0  0  0
  -11.4630   -0.8740   -4.7070 N   0  0  0  0  0  0  0  0  0  0  0  0
  -10.7750   -0.1920   -3.6160 C   0  0  0  0  0  0  0  0  0  0  0  0
  -12.6050   -0.0870   -5.2160 C   0  0  0  0  0  0  0  0  0  0  0  0
  -12.3360    0.6610   -6.5420 C   0  0  0  0  0  0  0  0  0  0  0  0
  -11.8040    0.5360  -10.6020 C   0  0  0  0  0  0  0  0  0  0  0  0
  -11.8240    1.3750  -11.7190 C   0  0  0  0  0  0  0  0  0  0  0  0
  -10.2640    3.6810  -15.6220 C   0  0  0  0  0  0  0  0  0  0  0  0
   -9.8330    4.4300  -16.7290 C   0  0  0  0  0  0  0  0  0  0  0  0
   -8.7140    4.0640  -17.4930 N   0  0  0  0  0  0  0  0  0  0  0  0
   -7.4170    3.6550  -17.2000 C   0  0  0  0  0  0  0  0  0  0  0  0
   -6.3820    4.5030  -17.1840 N   0  0  0  0  0  0  0  0  0  0  0  0
   -5.1730    3.9950  -16.8940 C   0  0  0  0  0  0  0  0  0  0  0  0
   -4.9530    2.6680  -16.6230 C   0  0  0  0  0  0  0  0  0  0  0  0
   -6.0620    1.8500  -16.6620 C   0  0  0  0  0  0  0  0  0  0  0  0
   -6.0030    0.4010  -16.3970 C   0  0  0  0  0  0  0  0  0  0  0  0
   -4.9840   -0.4290  -16.8890 C   0  0  0  0  0  0  0  0  0  0  0  0
   -4.9780   -1.7950  -16.6030 C   0  0  0  0  0  0  0  0  0  0  0  0
   -6.0000   -2.3090  -15.8260 C   0  0  0  0  0  0  0  0  0  0  0  0
   -7.0040   -1.5610  -15.3310 N   0  0  0  0  0  0  0  0  0  0  0  0
   -6.9830   -0.2370  -15.6330 C   0  0  0  0  0  0  0  0  0  0  0  0
   -7.2900    2.3420  -16.9430 N   0  0  0  0  0  0  0  0  0  0  0  0
   -9.7504    7.4252  -17.8350 H   0  0  0  0  0  0  0  0  0  0  0  0
   -9.4122    5.9657  -18.8260 H   0  0  0  0  0  0  0  0  0  0  0  0
  -11.0559    6.6902  -18.8260 H   0  0  0  0  0  0  0  0  0  0  0  0
  -12.2265    6.8839  -16.5373 H   0  0  0  0  0  0  0  0  0  0  0  0
  -12.9464    5.5149  -14.5924 H   0  0  0  0  0  0  0  0  0  0  0  0
  -10.9340    2.7260  -13.3420 H   0  0  0  0  0  0  0  0  0  0  0  0
  -15.0814    2.4025  -11.5777 H   0  0  0  0  0  0  0  0  0  0  0  0
  -15.0387    0.9174   -9.5785 H   0  0  0  0  0  0  0  0  0  0  0  0
  -13.8964   -0.4561   -8.0861 H   0  0  0  0  0  0  0  0  0  0  0  0
  -12.7344   -1.5638   -8.9551 H   0  0  0  0  0  0  0  0  0  0  0  0
  -11.9977   -2.1980   -7.0091 H   0  0  0  0  0  0  0  0  0  0  0  0
  -10.4611   -1.7381   -7.8693 H   0  0  0  0  0  0  0  0  0  0  0  0
   -9.9770   -2.1302   -5.5159 H   0  0  0  0  0  0  0  0  0  0  0  0
   -9.8201   -0.3625   -5.9035 H   0  0  0  0  0  0  0  0  0  0  0  0
  -11.1529   -0.5666   -2.6532 H   0  0  0  0  0  0  0  0  0  0  0  0
   -9.6944   -0.3855   -3.6861 H   0  0  0  0  0  0  0  0  0  0  0  0
  -10.9590    0.8902   -3.6861 H   0  0  0  0  0  0  0  0  0  0  0  0
  -13.4498   -0.7732   -5.3753 H   0  0  0  0  0  0  0  0  0  0  0  0
  -12.8105    0.6855   -4.4604 H   0  0  0  0  0  0  0  0  0  0  0  0
  -13.2722    1.1440   -6.8585 H   0  0  0  0  0  0  0  0  0  0  0  0
  -11.5268    1.3769   -6.3352 H   0  0  0  0  0  0  0  0  0  0  0  0
  -10.8763    0.0113  -10.3298 H   0  0  0  0  0  0  0  0  0  0  0  0
  -10.9166    1.4975  -12.3287 H   0  0  0  0  0  0  0  0  0  0  0  0
   -9.7093    2.7712  -15.3489 H   0  0  0  0  0  0  0  0  0  0  0  0
   -8.8290    4.0460  -18.4950 H   0  0  0  0  0  0  0  0  0  0  0  0
   -4.3125    4.6799  -16.8726 H   0  0  0  0  0  0  0  0  0  0  0  0
   -3.9509    2.2798  -16.3885 H   0  0  0  0  0  0  0  0  0  0  0  0
   -4.1818    0.0014  -17.5064 H   0  0  0  0  0  0  0  0  0  0  0  0
   -4.1795   -2.4472  -16.9864 H   0  0  0  0  0  0  0  0  0  0  0  0
   -5.9922   -3.3856  -15.6005 H   0  0  0  0  0  0  0  0  0  0  0  0
   -7.8043    0.3831  -15.2445 H   0  0  0  0  0  0  0  0  0  0  0  0
  1  2  1  0
  2  3  1  0
  3  4  2  0
  4  5  1  0
  5  6  1  0
  6  7  1  0
  7  8  2  0
  7  9  1  0
  9 10  1  0
 10 11  2  0
 11 12  1  0
 12 13  1  0
 13 14  1  0
 14 15  1  0
 15 16  1  0
 16 17  1  0
 17 18  1  0
 17 19  1  0
 19 20  1  0
 12 21  2  0
 21 22  1  0
  5 23  2  0
 23 24  1  0
 24 25  1  0
 25 26  1  0
 26 27  2  0
 27 28  1  0
 28 29  2  0
 29 30  1  0
 30 31  1  0
 31 32  1  0
 32 33  2  0
 33 34  1  0
 34 35  2  0
 35 36  1  0
 30 37  2  0
 24  2  2  0
 37 26  1  0
 22  9  2  0
 36 31  2  0
 20 14  1  0
  1 38  1  0
  1 39  1  0
  1 40  1  0
  3 41  1  0
  4 42  1  0
  6 43  1  0
 10 44  1  0
 11 45  1  0
 13 46  1  0
 13 47  1  0
 15 48  1  0
 15 49  1  0
 16 50  1  0
 16 51  1  0
 18 52  1  0
 18 53  1  0
 18 54  1  0
 19 55  1  0
 19 56  1  0
 20 57  1  0
 20 58  1  0
 21 59  1  0
 22 60  1  0
 23 61  1  0
 25 62  1  0
 28 63  1  0
 29 64  1  0
 32 65  1  0
 33 66  1  0
 34 67  1  0
 36 68  1  0
M  END
>  <meeko>  (6) 
{"is_sidechain": false}

>  <vina_affinity_kcal_mol>  (6) 
-9.582

>  <pose_rank>  (6) 
6

$$$$

     RDKit          3D

 68 72  0  0  0  0  0  0  0  0999 V2000
   -9.4320    6.7060  -17.6740 C   0  0  0  0  0  0  0  0  0  0  0  0
   -8.8460    5.3860  -17.2480 C   0  0  0  0  0  0  0  0  0  0  0  0
   -7.6120    4.9980  -17.7980 C   0  0  0  0  0  0  0  0  0  0  0  0
   -7.0180    3.7850  -17.4480 C   0  0  0  0  0  0  0  0  0  0  0  0
   -7.6430    2.9400  -16.5410 C   0  0  0  0  0  0  0  0  0  0  0  0
   -7.1220    1.6930  -16.1360 N   0  0  0  0  0  0  0  0  0  0  0  0
   -6.2010    1.4500  -15.1340 C   0  0  0  0  0  0  0  0  0  0  0  0
   -5.7180    2.2700  -14.3620 O   0  0  0  0  0  0  0  0  0  0  0  0
   -5.8100    0.0190  -14.9770 C   0  0  0  0  0  0  0  0  0  0  0  0
   -5.0320   -0.4190  -13.8990 C   0  0  0  0  0  0  0  0  0  0  0  0
   -4.6900   -1.7690  -13.7900 C   0  0  0  0  0  0  0  0  0  0  0  0
   -5.1330   -2.7010  -14.7420 C   0  0  0  0  0  0  0  0  0  0  0  0
   -4.7470   -4.1630  -14.6320 C   0  0  0  0  0  0  0  0  0  0  0  0
   -4.8670   -4.8960  -15.9010 N   0  0  0  0  0  0  0  0  0  0  0  0
   -5.5700   -6.1790  -15.6810 C   0  0  0  0  0  0  0  0  0  0  0  0
   -5.2650   -7.2170  -16.7790 C   0  0  0  0  0  0  0  0  0  0  0  0
   -3.8470   -7.6320  -16.7760 N   0  0  0  0  0  0  0  0  0  0  0  0
   -3.4730   -8.1830  -18.0750 C   0  0  0  0  0  0  0  0  0  0  0  0
   -2.9610   -6.5220  -16.3720 C   0  0  0  0  0  0  0  0  0  0  0  0
   -3.5610   -5.1100  -16.5650 C   0  0  0  0  0  0  0  0  0  0  0  0
   -5.9190   -2.2540  -15.8140 C   0  0  0  0  0  0  0  0  0  0  0  0
   -6.2620   -0.9040  -15.9260 C   0  0  0  0  0  0  0  0  0  0  0  0
   -8.8770    3.3270  -15.9930 C   0  0  0  0  0  0  0  0  0  0  0  0
   -9.4990    4.5430  -16.3200 C   0  0  0  0  0  0  0  0  0  0  0  0
  -10.7360    4.9250  -15.7790 N   0  0  0  0  0  0  0  0  0  0  0  0
  -11.6610    4.3270  -14.9290 C   0  0  0  0  0  0  0  0  0  0  0  0
  -12.8630    4.8620  -14.6840 N   0  0  0  0  0  0  0  0  0  0  0  0
  -13.6720    4.2000  -13.8410 C   0  0  0  0  0  0  0  0  0  0  0  0
  -13.3270    3.0240  -13.2240 C   0  0  0  0  0  0  0  0  0  0  0  0
  -12.0720    2.5320  -13.5170 C   0  0  0  0  0  0  0  0  0  0  0  0
  -11.5430    1.2820  -12.9420 C   0  0  0  0  0  0  0  0  0  0  0  0
  -11.7160    0.9220  -11.5970 C   0  0  0  0  0  0  0  0  0  0  0  0
  -11.1950   -0.2770  -11.1080 C   0  0  0  0  0  0  0  0  0  0  0  0
  -10.5050   -1.0980  -11.9800 C   0  0  0  0  0  0  0  0  0  0  0  0
  -10.3050   -0.8020  -13.2780 N   0  0  0  0  0  0  0  0  0  0  0  0
  -10.8200    0.3750  -13.7200 C   0  0  0  0  0  0  0  0  0  0  0  0
  -11.2450    3.1770  -14.3710 N   0  0  0  0  0  0  0  0  0  0  0  0
   -9.6937    7.2956  -16.7830 H   0  0  0  0  0  0  0  0  0  0  0  0
   -8.6943    7.2578  -18.2751 H   0  0  0  0  0  0  0  0  0  0  0  0
  -10.3361    6.5289  -18.2751 H   0  0  0  0  0  0  0  0  0  0  0  0
   -7.1067    5.6611  -18.5156 H   0  0  0  0  0  0  0  0  0  0  0  0
   -6.0531    3.4978  -17.8913 H   0  0  0  0  0  0  0  0  0  0  0  0
   -7.5240    0.8870  -16.5980 H   0  0  0  0  0  0  0  0  0  0  0  0
   -4.6904    0.2988  -13.1387 H   0  0  0  0  0  0  0  0  0  0  0  0
   -4.0665   -2.1057  -12.9487 H   0  0  0  0  0  0  0  0  0  0  0  0
   -3.7026   -4.2232  -14.2920 H   0  0  0  0  0  0  0  0  0  0  0  0
   -5.4437   -4.6300  -13.9203 H   0  0  0  0  0  0  0  0  0  0  0  0
   -5.2568   -6.5905  -14.7102 H   0  0  0  0  0  0  0  0  0  0  0  0
   -6.6507   -5.9756  -15.7053 H   0  0  0  0  0  0  0  0  0  0  0  0
   -5.8941   -8.1039  -16.6127 H   0  0  0  0  0  0  0  0  0  0  0  0
   -5.4787   -6.7516  -17.7525 H   0  0  0  0  0  0  0  0  0  0  0  0
   -2.8608   -9.0850  -17.9282 H   0  0  0  0  0  0  0  0  0  0  0  0
   -4.3813   -8.4440  -18.6379 H   0  0  0  0  0  0  0  0  0  0  0  0
   -2.8951   -7.4352  -18.6379 H   0  0  0  0  0  0  0  0  0  0  0  0
   -2.7187   -6.6481  -15.3065 H   0  0  0  0  0  0  0  0  0  0  0  0
   -2.0790   -6.5758  -17.0271 H   0  0  0  0  0  0  0  0  0  0  0  0
   -2.8474   -4.3765  -16.1616 H   0  0  0  0  0  0  0  0  0  0  0  0
   -3.7386   -4.9931  -17.6442 H   0  0  0  0  0  0  0  0  0  0  0  0
   -6.2679   -2.9710  -16.5718 H   0  0  0  0  0  0  0  0  0  0  0  0
   -6.8898   -0.5658  -16.7636 H   0  0  0  0  0  0  0  0  0  0  0  0
   -9.3749    2.6524  -15.2810 H   0  0  0  0  0  0  0  0  0  0  0  0
  -11.0670    5.8510  -16.0000 H   0  0  0  0  0  0  0  0  0  0  0  0
  -14.6657    4.6237  -13.6338 H   0  0  0  0  0  0  0  0  0  0  0  0
  -14.0106    2.5044  -12.5365 H   0  0  0  0  0  0  0  0  0  0  0  0
  -12.2679    1.5916  -10.9209 H   0  0  0  0  0  0  0  0  0  0  0  0
  -11.3303   -0.5617  -10.0541 H   0  0  0  0  0  0  0  0  0  0  0  0
  -10.0976   -2.0436  -11.5928 H   0  0  0  0  0  0  0  0  0  0  0  0
  -10.6541    0.6346  -14.7760 H   0  0  0  0  0  0  0  0  0  0  0  0
  1  2  1  0
  2  3  1  0
  3  4  2  0
  4  5  1  0
  5  6  1  0
  6  7  1  0
  7  8  2  0
  7  9  1  0
  9 10  1  0
 10 11  2  0
 11 12  1  0
 12 13  1  0
 13 14  1  0
 14 15  1  0
 15 16  1  0
 16 17  1  0
 17 18  1  0
 17 19  1  0
 19 20  1  0
 12 21  2  0
 21 22  1  0
  5 23  2  0
 23 24  1  0
 24 25  1  0
 25 26  1  0
 26 27  2  0
 27 28  1  0
 28 29  2  0
 29 30  1  0
 30 31  1  0
 31 32  1  0
 32 33  2  0
 33 34  1  0
 34 35  2  0
 35 36  1  0
 30 37  2  0
 24  2  2  0
 37 26  1  0
 22  9  2  0
 36 31  2  0
 20 14  1  0
  1 38  1  0
  1 39  1  0
  1 40  1  0
  3 41  1  0
  4 42  1  0
  6 43  1  0
 10 44  1  0
 11 45  1  0
 13 46  1  0
 13 47  1  0
 15 48  1  0
 15 49  1  0
 16 50  1  0
 16 51  1  0
 18 52  1  0
 18 53  1  0
 18 54  1  0
 19 55  1  0
 19 56  1  0
 20 57  1  0
 20 58  1  0
 21 59  1  0
 22 60  1  0
 23 61  1  0
 25 62  1  0
 28 63  1  0
 29 64  1  0
 32 65  1  0
 33 66  1  0
 34 67  1  0
 36 68  1  0
M  END
>  <meeko>  (7) 
{"is_sidechain": false}

>  <vina_affinity_kcal_mol>  (7) 
-9.555

>  <pose_rank>  (7) 
7

$$$$

     RDKit          3D

 68 72  0  0  0  0  0  0  0  0999 V2000
   -8.0240    5.3320  -18.1660 C   0  0  0  0  0  0  0  0  0  0  0  0
   -8.7420    4.6180  -17.0510 C   0  0  0  0  0  0  0  0  0  0  0  0
   -9.9990    5.1030  -16.6510 C   0  0  0  0  0  0  0  0  0  0  0  0
  -10.7130    4.4910  -15.6210 C   0  0  0  0  0  0  0  0  0  0  0  0
  -10.1860    3.3810  -14.9740 C   0  0  0  0  0  0  0  0  0  0  0  0
  -10.8310    2.7040  -13.9170 N   0  0  0  0  0  0  0  0  0  0  0  0
  -12.1410    2.8490  -13.4990 C   0  0  0  0  0  0  0  0  0  0  0  0
  -13.0080    3.5440  -14.0160 O   0  0  0  0  0  0  0  0  0  0  0  0
  -12.5150    2.0230  -12.3150 C   0  0  0  0  0  0  0  0  0  0  0  0
  -13.7720    2.1300  -11.7080 C   0  0  0  0  0  0  0  0  0  0  0  0
  -14.0810    1.3360  -10.6020 C   0  0  0  0  0  0  0  0  0  0  0  0
  -13.1510    0.4120  -10.0980 C   0  0  0  0  0  0  0  0  0  0  0  0
  -13.4820   -0.4380   -8.8870 C   0  0  0  0  0  0  0  0  0  0  0  0
  -12.9760   -1.8150   -8.9850 N   0  0  0  0  0  0  0  0  0  0  0  0
  -13.9050   -2.6410   -9.7860 C   0  0  0  0  0  0  0  0  0  0  0  0
  -13.7640   -4.1470   -9.4920 C   0  0  0  0  0  0  0  0  0  0  0  0
  -14.1590   -4.4840   -8.1080 N   0  0  0  0  0  0  0  0  0  0  0  0
  -13.5580   -5.7500   -7.7000 C   0  0  0  0  0  0  0  0  0  0  0  0
  -13.8310   -3.3910   -7.1720 C   0  0  0  0  0  0  0  0  0  0  0  0
  -12.7240   -2.4290   -7.6610 C   0  0  0  0  0  0  0  0  0  0  0  0
  -11.8970    0.3060  -10.7180 C   0  0  0  0  0  0  0  0  0  0  0  0
  -11.5850    1.1000  -11.8240 C   0  0  0  0  0  0  0  0  0  0  0  0
   -8.9280    2.8970  -15.3710 C   0  0  0  0  0  0  0  0  0  0  0  0
   -8.1870    3.4880  -16.4080 C   0  0  0  0  0  0  0  0  0  0  0  0
   -6.9270    3.0100  -16.7980 N   0  0  0  0  0  0  0  0  0  0  0  0
   -6.3480    1.7500  -16.9110 C   0  0  0  0  0  0  0  0  0  0  0  0
   -6.9470    0.6410  -16.4600 N   0  0  0  0  0  0  0  0  0  0  0  0
   -6.2930   -0.5210  -16.6170 C   0  0  0  0  0  0  0  0  0  0  0  0
   -5.0560   -0.6220  -17.2020 C   0  0  0  0  0  0  0  0  0  0  0  0
   -4.4950    0.5600  -17.6390 C   0  0  0  0  0  0  0  0  0  0  0  0
   -3.1740    0.6320  -18.2880 C   0  0  0  0  0  0  0  0  0  0  0  0
   -2.9650    0.3260  -19.6420 C   0  0  0  0  0  0  0  0  0  0  0  0
   -1.6900    0.4150  -20.2040 C   0  0  0  0  0  0  0  0  0  0  0  0
   -0.6410    0.8100  -19.3950 C   0  0  0  0  0  0  0  0  0  0  0  0
   -0.7820    1.1100  -18.0900 N   0  0  0  0  0  0  0  0  0  0  0  0
   -2.0340    1.0080  -17.5730 C   0  0  0  0  0  0  0  0  0  0  0  0
   -5.1400    1.7400  -17.4990 N   0  0  0  0  0  0  0  0  0  0  0  0
   -7.3048    6.0472  -17.7402 H   0  0  0  0  0  0  0  0  0  0  0  0
   -7.4881    4.5983  -18.7861 H   0  0  0  0  0  0  0  0  0  0  0  0
   -8.7547    5.8720  -18.7861 H   0  0  0  0  0  0  0  0  0  0  0  0
  -10.4269    5.9800  -17.1588 H   0  0  0  0  0  0  0  0  0  0  0  0
  -11.6941    4.8878  -15.3210 H   0  0  0  0  0  0  0  0  0  0  0  0
  -10.2790    1.9880  -13.4620 H   0  0  0  0  0  0  0  0  0  0  0  0
  -14.5153    2.8388  -12.1020 H   0  0  0  0  0  0  0  0  0  0  0  0
  -15.0646    1.4353  -10.1196 H   0  0  0  0  0  0  0  0  0  0  0  0
  -13.0387    0.0341   -7.9978 H   0  0  0  0  0  0  0  0  0  0  0  0
  -14.5784   -0.4985   -8.8222 H   0  0  0  0  0  0  0  0  0  0  0  0
  -14.9361   -2.3328   -9.5582 H   0  0  0  0  0  0  0  0  0  0  0  0
  -13.6593   -2.4845  -10.8467 H   0  0  0  0  0  0  0  0  0  0  0  0
  -14.4051   -4.7059  -10.1896 H   0  0  0  0  0  0  0  0  0  0  0  0
  -12.7054   -4.4183   -9.6171 H   0  0  0  0  0  0  0  0  0  0  0  0
  -13.5313   -5.8061   -6.6018 H   0  0  0  0  0  0  0  0  0  0  0  0
  -14.1562   -6.5842   -8.0954 H   0  0  0  0  0  0  0  0  0  0  0  0
  -12.5335   -5.8138   -8.0954 H   0  0  0  0  0  0  0  0  0  0  0  0
  -14.7442   -2.8025   -6.9997 H   0  0  0  0  0  0  0  0  0  0  0  0
  -13.4446   -3.8697   -6.2601 H   0  0  0  0  0  0  0  0  0  0  0  0
  -12.6225   -1.6203   -6.9223 H   0  0  0  0  0  0  0  0  0  0  0  0
  -11.8122   -3.0349   -7.7688 H   0  0  0  0  0  0  0  0  0  0  0  0
  -11.1545   -0.4072  -10.3306 H   0  0  0  0  0  0  0  0  0  0  0  0
  -10.6039    0.9993  -12.3111 H   0  0  0  0  0  0  0  0  0  0  0  0
   -8.5080    2.0235  -14.8508 H   0  0  0  0  0  0  0  0  0  0  0  0
   -6.2530    3.6930  -17.1090 H   0  0  0  0  0  0  0  0  0  0  0  0
   -6.7750   -1.4420  -16.2571 H   0  0  0  0  0  0  0  0  0  0  0  0
   -4.5423   -1.5880  -17.3157 H   0  0  0  0  0  0  0  0  0  0  0  0
   -3.8145    0.0129  -20.2667 H   0  0  0  0  0  0  0  0  0  0  0  0
   -1.5242    0.1765  -21.2650 H   0  0  0  0  0  0  0  0  0  0  0  0
    0.3619    0.8831  -19.8409 H   0  0  0  0  0  0  0  0  0  0  0  0
   -2.1606    1.2402  -16.5053 H   0  0  0  0  0  0  0  0  0  0  0  0
  1  2  1  0
  2  3  1  0
  3  4  2  0
  4  5  1  0
  5  6  1  0
  6  7  1  0
  7  8  2  0
  7  9  1  0
  9 10  1  0
 10 11  2  0
 11 12  1  0
 12 13  1  0
 13 14  1  0
 14 15  1  0
 15 16  1  0
 16 17  1  0
 17 18  1  0
 17 19  1  0
 19 20  1  0
 12 21  2  0
 21 22  1  0
  5 23  2  0
 23 24  1  0
 24 25  1  0
 25 26  1  0
 26 27  2  0
 27 28  1  0
 28 29  2  0
 29 30  1  0
 30 31  1  0
 31 32  1  0
 32 33  2  0
 33 34  1  0
 34 35  2  0
 35 36  1  0
 30 37  2  0
 24  2  2  0
 37 26  1  0
 22  9  2  0
 36 31  2  0
 20 14  1  0
  1 38  1  0
  1 39  1  0
  1 40  1  0
  3 41  1  0
  4 42  1  0
  6 43  1  0
 10 44  1  0
 11 45  1  0
 13 46  1  0
 13 47  1  0
 15 48  1  0
 15 49  1  0
 16 50  1  0
 16 51  1  0
 18 52  1  0
 18 53  1  0
 18 54  1  0
 19 55  1  0
 19 56  1  0
 20 57  1  0
 20 58  1  0
 21 59  1  0
 22 60  1  0
 23 61  1  0
 25 62  1  0
 28 63  1  0
 29 64  1  0
 32 65  1  0
 33 66  1  0
 34 67  1  0
 36 68  1  0
M  END
>  <meeko>  (8) 
{"is_sidechain": false}

>  <vina_affinity_kcal_mol>  (8) 
-9.423

>  <pose_rank>  (8) 
8

$$$$

     RDKit          3D

 68 72  0  0  0  0  0  0  0  0999 V2000
   -7.8380    5.2270  -18.4450 C   0  0  0  0  0  0  0  0  0  0  0  0
   -8.5960    4.5500  -17.3330 C   0  0  0  0  0  0  0  0  0  0  0  0
   -9.8270    5.1000  -16.9360 C   0  0  0  0  0  0  0  0  0  0  0  0
  -10.5750    4.5250  -15.9100 C   0  0  0  0  0  0  0  0  0  0  0  0
  -10.1090    3.3880  -15.2620 C   0  0  0  0  0  0  0  0  0  0  0  0
  -10.7920    2.7440  -14.2080 N   0  0  0  0  0  0  0  0  0  0  0  0
  -11.9510    3.1590  -13.5780 C   0  0  0  0  0  0  0  0  0  0  0  0
  -12.6400    4.1300  -13.8670 O   0  0  0  0  0  0  0  0  0  0  0  0
  -12.4020    2.2820  -12.4600 C   0  0  0  0  0  0  0  0  0  0  0  0
  -13.7060    2.3450  -11.9540 C   0  0  0  0  0  0  0  0  0  0  0  0
  -14.0880    1.5040  -10.9060 C   0  0  0  0  0  0  0  0  0  0  0  0
  -13.1830    0.5780  -10.3620 C   0  0  0  0  0  0  0  0  0  0  0  0
  -13.5950   -0.3230   -9.2140 C   0  0  0  0  0  0  0  0  0  0  0  0
  -13.0240   -1.6760   -9.3010 N   0  0  0  0  0  0  0  0  0  0  0  0
  -14.0400   -2.6220   -9.8110 C   0  0  0  0  0  0  0  0  0  0  0  0
  -13.7350   -4.0830   -9.4270 C   0  0  0  0  0  0  0  0  0  0  0  0
  -13.8070   -4.3030   -7.9680 N   0  0  0  0  0  0  0  0  0  0  0  0
  -13.0460   -5.4910   -7.5920 C   0  0  0  0  0  0  0  0  0  0  0  0
  -13.3680   -3.1080   -7.2200 C   0  0  0  0  0  0  0  0  0  0  0  0
  -12.4590   -2.1430   -8.0150 C   0  0  0  0  0  0  0  0  0  0  0  0
  -11.8820    0.5170  -10.8810 C   0  0  0  0  0  0  0  0  0  0  0  0
  -11.4970    1.3580  -11.9280 C   0  0  0  0  0  0  0  0  0  0  0  0
   -8.8770    2.8400  -15.6560 C   0  0  0  0  0  0  0  0  0  0  0  0
   -8.1030    3.3920  -16.6900 C   0  0  0  0  0  0  0  0  0  0  0  0
   -6.8690    2.8490  -17.0770 N   0  0  0  0  0  0  0  0  0  0  0  0
   -6.2720    1.5960  -16.9720 C   0  0  0  0  0  0  0  0  0  0  0  0
   -5.5030    1.0830  -17.9400 N   0  0  0  0  0  0  0  0  0  0  0  0
   -4.9840   -0.1380  -17.7330 C   0  0  0  0  0  0  0  0  0  0  0  0
   -5.2070   -0.8750  -16.5970 C   0  0  0  0  0  0  0  0  0  0  0  0
   -6.0130   -0.2880  -15.6430 C   0  0  0  0  0  0  0  0  0  0  0  0
   -6.3550   -0.9410  -14.3670 C   0  0  0  0  0  0  0  0  0  0  0  0
   -7.0490   -0.2930  -13.3340 C   0  0  0  0  0  0  0  0  0  0  0  0
   -7.3480   -0.9630  -12.1460 C   0  0  0  0  0  0  0  0  0  0  0  0
   -6.9430   -2.2780  -12.0140 C   0  0  0  0  0  0  0  0  0  0  0  0
   -6.2710   -2.9480  -12.9690 N   0  0  0  0  0  0  0  0  0  0  0  0
   -5.9920   -2.2650  -14.1100 C   0  0  0  0  0  0  0  0  0  0  0  0
   -6.5390    0.9440  -15.8270 N   0  0  0  0  0  0  0  0  0  0  0  0
   -7.0826    5.9017  -18.0160 H   0  0  0  0  0  0  0  0  0  0  0  0
   -7.3407    4.4669  -19.0655 H   0  0  0  0  0  0  0  0  0  0  0  0
   -8.5373    5.8067  -19.0655 H   0  0  0  0  0  0  0  0  0  0  0  0
  -10.2064    5.9992  -17.4434 H   0  0  0  0  0  0  0  0  0  0  0  0
  -11.5352    4.9720  -15.6131 H   0  0  0  0  0  0  0  0  0  0  0  0
  -10.4150    1.8460  -13.9350 H   0  0  0  0  0  0  0  0  0  0  0  0
  -14.4287    3.0558  -12.3811 H   0  0  0  0  0  0  0  0  0  0  0  0
  -15.1092    1.5678  -10.5023 H   0  0  0  0  0  0  0  0  0  0  0  0
  -13.2609    0.1369   -8.2723 H   0  0  0  0  0  0  0  0  0  0  0  0
  -14.6890   -0.4281   -9.2593 H   0  0  0  0  0  0  0  0  0  0  0  0
  -15.0197   -2.3453   -9.3942 H   0  0  0  0  0  0  0  0  0  0  0  0
  -14.0335   -2.5578  -10.9091 H   0  0  0  0  0  0  0  0  0  0  0  0
  -14.4668   -4.7393   -9.9208 H   0  0  0  0  0  0  0  0  0  0  0  0
  -12.7093   -4.3108   -9.7527 H   0  0  0  0  0  0  0  0  0  0  0  0
  -12.9990   -5.5644   -6.4955 H   0  0  0  0  0  0  0  0  0  0  0  0
  -13.5391   -6.3862   -7.9986 H   0  0  0  0  0  0  0  0  0  0  0  0
  -12.0266   -5.4173   -7.9986 H   0  0  0  0  0  0  0  0  0  0  0  0
  -14.2641   -2.5529   -6.9055 H   0  0  0  0  0  0  0  0  0  0  0  0
  -12.7661   -3.4752   -6.3756 H   0  0  0  0  0  0  0  0  0  0  0  0
  -12.2636   -1.2614   -7.3868 H   0  0  0  0  0  0  0  0  0  0  0  0
  -11.5492   -2.7089   -8.2638 H   0  0  0  0  0  0  0  0  0  0  0  0
  -11.1594   -0.1980  -10.4609 H   0  0  0  0  0  0  0  0  0  0  0  0
  -10.4774    1.2931  -12.3358 H   0  0  0  0  0  0  0  0  0  0  0  0
   -8.5046    1.9454  -15.1354 H   0  0  0  0  0  0  0  0  0  0  0  0
   -6.2380    3.4540  -17.5800 H   0  0  0  0  0  0  0  0  0  0  0  0
   -4.3452   -0.5712  -18.5168 H   0  0  0  0  0  0  0  0  0  0  0  0
   -4.7693   -1.8742  -16.4553 H   0  0  0  0  0  0  0  0  0  0  0  0
   -7.3609    0.7541  -13.4614 H   0  0  0  0  0  0  0  0  0  0  0  0
   -7.8924   -0.4569  -11.3352 H   0  0  0  0  0  0  0  0  0  0  0  0
   -7.1826   -2.8052  -11.0787 H   0  0  0  0  0  0  0  0  0  0  0  0
   -5.4352   -2.7979  -14.8948 H   0  0  0  0  0  0  0  0  0  0  0  0
  1  2  1  0
  2  3  1  0
  3  4  2  0
  4  5  1  0
  5  6  1  0
  6  7  1  0
  7  8  2  0
  7  9  1  0
  9 10  1  0
 10 11  2  0
 11 12  1  0
 12 13  1  0
 13 14  1  0
 14 15  1  0
 15 16  1  0
 16 17  1  0
 17 18  1  0
 17 19  1  0
 19 20  1  0
 12 21  2  0
 21 22  1  0
  5 23  2  0
 23 24  1  0
 24 25  1  0
 25 26  1  0
 26 27  2  0
 27 28  1  0
 28 29  2  0
 29 30  1  0
 30 31  1  0
 31 32  1  0
 32 33  2  0
 33 34  1  0
 34 35  2  0
 35 36  1  0
 30 37  2  0
 24  2  2  0
 37 26  1  0
 22  9  2  0
 36 31  2  0
 20 14  1  0
  1 38  1  0
  1 39  1  0
  1 40  1  0
  3 41  1  0
  4 42  1  0
  6 43  1  0
 10 44  1  0
 11 45  1  0
 13 46  1  0
 13 47  1  0
 15 48  1  0
 15 49  1  0
 16 50  1  0
 16 51  1  0
 18 52  1  0
 18 53  1  0
 18 54  1  0
 19 55  1  0
 19 56  1  0
 20 57  1  0
 20 58  1  0
 21 59  1  0
 22 60  1  0
 23 61  1  0
 25 62  1  0
 28 63  1  0
 29 64  1  0
 32 65  1  0
 33 66  1  0
 34 67  1  0
 36 68  1  0
M  END
>  <meeko>  (9) 
{"is_sidechain": false}

>  <vina_affinity_kcal_mol>  (9) 
-9.24

>  <pose_rank>  (9) 
9

$$$$

     RDKit          3D

 68 72  0  0  0  0  0  0  0  0999 V2000
   -7.6550    3.7590  -18.0890 C   0  0  0  0  0  0  0  0  0  0  0  0
   -8.4610    3.2400  -16.9270 C   0  0  0  0  0  0  0  0  0  0  0  0
   -9.2670    4.1460  -16.2180 C   0  0  0  0  0  0  0  0  0  0  0  0
  -10.0330    3.7300  -15.1300 C   0  0  0  0  0  0  0  0  0  0  0  0
  -10.0100    2.4000  -14.7310 C   0  0  0  0  0  0  0  0  0  0  0  0
  -10.7430    1.8910  -13.6380 N   0  0  0  0  0  0  0  0  0  0  0  0
  -11.9120    2.3970  -13.0980 C   0  0  0  0  0  0  0  0  0  0  0  0
  -12.5670    3.3450  -13.5160 O   0  0  0  0  0  0  0  0  0  0  0  0
  -12.4220    1.6590  -11.9070 C   0  0  0  0  0  0  0  0  0  0  0  0
  -13.7320    1.8240  -11.4430 C   0  0  0  0  0  0  0  0  0  0  0  0
  -14.1700    1.1110  -10.3250 C   0  0  0  0  0  0  0  0  0  0  0  0
  -13.3150    0.2130   -9.6660 C   0  0  0  0  0  0  0  0  0  0  0  0
  -13.7860   -0.5480   -8.4420 C   0  0  0  0  0  0  0  0  0  0  0  0
  -15.2500   -0.6650   -8.3550 N   0  0  0  0  0  0  0  0  0  0  0  0
  -15.7540    0.1190   -7.2070 C   0  0  0  0  0  0  0  0  0  0  0  0
  -17.1340   -0.3660   -6.7190 C   0  0  0  0  0  0  0  0  0  0  0  0
  -17.0800   -1.7350   -6.1650 N   0  0  0  0  0  0  0  0  0  0  0  0
  -18.4040   -2.3480   -6.1900 C   0  0  0  0  0  0  0  0  0  0  0  0
  -16.0760   -2.5610   -6.8660 C   0  0  0  0  0  0  0  0  0  0  0  0
  -15.7090   -2.0700   -8.2850 C   0  0  0  0  0  0  0  0  0  0  0  0
  -12.0070    0.0480  -10.1430 C   0  0  0  0  0  0  0  0  0  0  0  0
  -11.5660    0.7610  -11.2610 C   0  0  0  0  0  0  0  0  0  0  0  0
   -9.2020    1.4930  -15.4370 C   0  0  0  0  0  0  0  0  0  0  0  0
   -8.4240    1.8800  -16.5410 C   0  0  0  0  0  0  0  0  0  0  0  0
   -7.6110    0.9760  -17.2410 N   0  0  0  0  0  0  0  0  0  0  0  0
   -6.3500    0.4260  -17.0300 C   0  0  0  0  0  0  0  0  0  0  0  0
   -5.2300    1.0020  -17.4830 N   0  0  0  0  0  0  0  0  0  0  0  0
   -4.0680    0.3780  -17.2270 C   0  0  0  0  0  0  0  0  0  0  0  0
   -3.9790   -0.8060  -16.5390 C   0  0  0  0  0  0  0  0  0  0  0  0
   -5.1720   -1.3470  -16.1060 C   0  0  0  0  0  0  0  0  0  0  0  0
   -5.2560   -2.6120  -15.3560 C   0  0  0  0  0  0  0  0  0  0  0  0
   -4.5160   -3.7560  -15.6910 C   0  0  0  0  0  0  0  0  0  0  0  0
   -4.6340   -4.9270  -14.9400 C   0  0  0  0  0  0  0  0  0  0  0  0
   -5.4990   -4.9310  -13.8610 C   0  0  0  0  0  0  0  0  0  0  0  0
   -6.2370   -3.8660  -13.4960 N   0  0  0  0  0  0  0  0  0  0  0  0
   -6.1020   -2.7440  -14.2520 C   0  0  0  0  0  0  0  0  0  0  0  0
   -6.3520   -0.7310  -16.3460 N   0  0  0  0  0  0  0  0  0  0  0  0
   -6.7862    4.3184  -17.7119 H   0  0  0  0  0  0  0  0  0  0  0  0
   -7.3089    2.9136  -18.7018 H   0  0  0  0  0  0  0  0  0  0  0  0
   -8.2814    4.4239  -18.7018 H   0  0  0  0  0  0  0  0  0  0  0  0
   -9.2942    5.2015  -16.5265 H   0  0  0  0  0  0  0  0  0  0  0  0
  -10.6562    4.4559  -14.5871 H   0  0  0  0  0  0  0  0  0  0  0  0
  -10.3980    1.0210  -13.2540 H   0  0  0  0  0  0  0  0  0  0  0  0
  -14.4158    2.5145  -11.9583 H   0  0  0  0  0  0  0  0  0  0  0  0
  -15.1964    1.2545   -9.9564 H   0  0  0  0  0  0  0  0  0  0  0  0
  -13.3565   -1.5602   -8.4739 H   0  0  0  0  0  0  0  0  0  0  0  0
  -13.4521    0.0173   -7.5594 H   0  0  0  0  0  0  0  0  0  0  0  0
  -15.0362    0.0314   -6.3781 H   0  0  0  0  0  0  0  0  0  0  0  0
  -15.8650    1.1620   -7.5384 H   0  0  0  0  0  0  0  0  0  0  0  0
  -17.4941    0.3188   -5.9371 H   0  0  0  0  0  0  0  0  0  0  0  0
  -17.8133   -0.3780   -7.5841 H   0  0  0  0  0  0  0  0  0  0  0  0
  -18.7528   -2.5095   -5.1593 H   0  0  0  0  0  0  0  0  0  0  0  0
  -19.1060   -1.6833   -6.7148 H   0  0  0  0  0  0  0  0  0  0  0  0
  -18.3513   -3.3133   -6.7148 H   0  0  0  0  0  0  0  0  0  0  0  0
  -15.1583   -2.5719   -6.2597 H   0  0  0  0  0  0  0  0  0  0  0  0
  -16.5263   -3.5569   -6.9898 H   0  0  0  0  0  0  0  0  0  0  0  0
  -14.9047   -2.7127   -8.6723 H   0  0  0  0  0  0  0  0  0  0  0  0
  -16.6322   -2.1247   -8.8805 H   0  0  0  0  0  0  0  0  0  0  0  0
  -11.3234   -0.6473   -9.6338 H   0  0  0  0  0  0  0  0  0  0  0  0
  -10.5416    0.6155  -11.6345 H   0  0  0  0  0  0  0  0  0  0  0  0
   -9.1776    0.4419  -15.1137 H   0  0  0  0  0  0  0  0  0  0  0  0
   -7.9900    0.5760  -18.0850 H   0  0  0  0  0  0  0  0  0  0  0  0
   -3.1380    0.8411  -17.5883 H   0  0  0  0  0  0  0  0  0  0  0  0
   -3.0131   -1.2950  -16.3442 H   0  0  0  0  0  0  0  0  0  0  0  0
   -3.8354   -3.7300  -16.5548 H   0  0  0  0  0  0  0  0  0  0  0  0
   -4.0533   -5.8243  -15.2001 H   0  0  0  0  0  0  0  0  0  0  0  0
   -5.5888   -5.8539  -13.2693 H   0  0  0  0  0  0  0  0  0  0  0  0
   -6.7078   -1.8696  -13.9718 H   0  0  0  0  0  0  0  0  0  0  0  0
  1  2  1  0
  2  3  1  0
  3  4  2  0
  4  5  1  0
  5  6  1  0
  6  7  1  0
  7  8  2  0
  7  9  1  0
  9 10  1  0
 10 11  2  0
 11 12  1  0
 12 13  1  0
 13 14  1  0
 14 15  1  0
 15 16  1  0
 16 17  1  0
 17 18  1  0
 17 19  1  0
 19 20  1  0
 12 21  2  0
 21 22  1  0
  5 23  2  0
 23 24  1  0
 24 25  1  0
 25 26  1  0
 26 27  2  0
 27 28  1  0
 28 29  2  0
 29 30  1  0
 30 31  1  0
 31 32  1  0
 32 33  2  0
 33 34  1  0
 34 35  2  0
 35 36  1  0
 30 37  2  0
 24  2  2  0
 37 26  1  0
 22  9  2  0
 36 31  2  0
 20 14  1  0
  1 38  1  0
  1 39  1  0
  1 40  1  0
  3 41  1  0
  4 42  1  0
  6 43  1  0
 10 44  1  0
 11 45  1  0
 13 46  1  0
 13 47  1  0
 15 48  1  0
 15 49  1  0
 16 50  1  0
 16 51  1  0
 18 52  1  0
 18 53  1  0
 18 54  1  0
 19 55  1  0
 19 56  1  0
 20 57  1  0
 20 58  1  0
 21 59  1  0
 22 60  1  0
 23 61  1  0
 25 62  1  0
 28 63  1  0
 29 64  1  0
 32 65  1  0
 33 66  1  0
 34 67  1  0
 36 68  1  0
M  END
>  <meeko>  (10) 
{"is_sidechain": false}

>  <vina_affinity_kcal_mol>  (10) 
-9.02

>  <pose_rank>  (10) 
10

$$$$
