
     RDKit          3D

 56 58  0  0  0  0  0  0  0  0999 V2000
   -5.7887    0.4725    2.5422 C   0  0  0  0  0  0  0  0  0  0  0  0
   -6.2014    0.2526    1.0892 C   0  0  0  0  0  0  0  0  0  0  0  0
   -5.5140   -0.8743    0.4356 N   0  0  0  0  0  0  0  0  0  0  0  0
   -6.0227   -1.1183   -0.9237 C   0  0  0  0  0  0  0  0  0  0  0  0
   -7.4258   -1.7171   -0.9319 C   0  0  0  0  0  0  0  0  0  0  0  0
   -4.0408   -0.7497    0.4440 C   0  0  0  0  0  0  0  0  0  0  0  0
   -3.4363    0.4591   -0.2991 C   0  0  0  0  0  0  0  0  0  0  0  0
   -1.9872    0.4408   -0.2823 N   0  0  0  0  0  0  0  0  0  0  0  0
   -1.2701    0.8697    0.8124 C   0  0  0  0  0  0  0  0  0  0  0  0
   -1.8024    1.2924    1.8335 O   0  0  0  0  0  0  0  0  0  0  0  0
    0.1823    0.8277    0.6270 C   0  0  0  0  0  0  0  0  0  0  0  0
    1.0539    1.7858    1.1197 C   0  0  0  0  0  0  0  0  0  0  0  0
    0.7941    3.0138    1.9174 C   0  0  0  0  0  0  0  0  0  0  0  0
    2.3250    1.4429    0.7387 N   0  0  0  0  0  0  0  0  0  0  0  0
    2.3222    0.2724    0.0233 C   0  0  0  0  0  0  0  0  0  0  0  0
    3.5165   -0.3088   -0.4937 C   0  0  0  0  0  0  0  0  0  0  0  0
    4.7872    0.1214   -0.4154 C   0  0  0  0  0  0  0  0  0  0  0  0
    5.3848    1.3487    0.2333 C   0  0  0  0  0  0  0  0  0  0  0  0
    4.8161    2.2361    0.8403 O   0  0  0  0  0  0  0  0  0  0  0  0
    6.7465    1.2690   -0.0047 N   0  0  0  0  0  0  0  0  0  0  0  0
    7.0713    0.1308   -0.7300 C   0  0  0  0  0  0  0  0  0  0  0  0
    8.3343   -0.2547   -1.1369 C   0  0  0  0  0  0  0  0  0  0  0  0
    8.4357   -1.4434   -1.8612 C   0  0  0  0  0  0  0  0  0  0  0  0
    7.2874   -2.1951   -2.1494 C   0  0  0  0  0  0  0  0  0  0  0  0
    7.4137   -3.3320   -2.8466 F   0  0  0  0  0  0  0  0  0  0  0  0
    6.0184   -1.7935   -1.7317 C   0  0  0  0  0  0  0  0  0  0  0  0
    5.9205   -0.6139   -1.0138 C   0  0  0  0  0  0  0  0  0  0  0  0
    0.9978   -0.1599   -0.0372 C   0  0  0  0  0  0  0  0  0  0  0  0
    0.5161   -1.4326   -0.6517 C   0  0  0  0  0  0  0  0  0  0  0  0
   -4.7652    0.8503    2.6240 H   0  0  0  0  0  0  0  0  0  0  0  0
   -5.8684   -0.4539    3.1204 H   0  0  0  0  0  0  0  0  0  0  0  0
   -6.4470    1.2142    3.0070 H   0  0  0  0  0  0  0  0  0  0  0  0
   -6.0622    1.1834    0.5265 H   0  0  0  0  0  0  0  0  0  0  0  0
   -7.2792    0.0575    1.1070 H   0  0  0  0  0  0  0  0  0  0  0  0
   -5.3728   -1.8422   -1.4318 H   0  0  0  0  0  0  0  0  0  0  0  0
   -6.0104   -0.2020   -1.5263 H   0  0  0  0  0  0  0  0  0  0  0  0
   -8.1800   -1.0034   -0.5883 H   0  0  0  0  0  0  0  0  0  0  0  0
   -7.4777   -2.6102   -0.3002 H   0  0  0  0  0  0  0  0  0  0  0  0
   -7.6973   -2.0128   -1.9510 H   0  0  0  0  0  0  0  0  0  0  0  0
   -3.6157   -1.6682    0.0155 H   0  0  0  0  0  0  0  0  0  0  0  0
   -3.6817   -0.7627    1.4801 H   0  0  0  0  0  0  0  0  0  0  0  0
   -3.7333    0.4550   -1.3525 H   0  0  0  0  0  0  0  0  0  0  0  0
   -3.7727    1.4007    0.1471 H   0  0  0  0  0  0  0  0  0  0  0  0
   -1.4850    0.2665   -1.1410 H   0  0  0  0  0  0  0  0  0  0  0  0
    0.4894    2.7480    2.9345 H   0  0  0  0  0  0  0  0  0  0  0  0
    1.6854    3.6463    1.9851 H   0  0  0  0  0  0  0  0  0  0  0  0
   -0.0030    3.6083    1.4597 H   0  0  0  0  0  0  0  0  0  0  0  0
    3.1499    1.9900    0.9674 H   0  0  0  0  0  0  0  0  0  0  0  0
    3.3492   -1.2398   -1.0306 H   0  0  0  0  0  0  0  0  0  0  0  0
    7.3962    1.9679    0.3226 H   0  0  0  0  0  0  0  0  0  0  0  0
    9.2146    0.3349   -0.9074 H   0  0  0  0  0  0  0  0  0  0  0  0
    9.4022   -1.7983   -2.2081 H   0  0  0  0  0  0  0  0  0  0  0  0
    5.1572   -2.4034   -1.9743 H   0  0  0  0  0  0  0  0  0  0  0  0
    0.2882   -1.2787   -1.7110 H   0  0  0  0  0  0  0  0  0  0  0  0
   -0.3835   -1.8012   -0.1491 H   0  0  0  0  0  0  0  0  0  0  0  0
    1.2683   -2.2237   -0.5725 H   0  0  0  0  0  0  0  0  0  0  0  0
  1  2  1  0
  2  3  1  0
  3  4  1  0
  4  5  1  0
  3  6  1  0
  6  7  1  0
  7  8  1  0
  8  9  1  0
  9 10  2  0
  9 11  1  0
 11 12  2  0
 12 13  1  0
 12 14  1  0
 14 15  1  0
 15 16  1  0
 16 17  2  0
 17 18  1  0
 18 19  2  0
 18 20  1  0
 20 21  1  0
 21 22  1  0
 22 23  2  0
 23 24  1  0
 24 25  1  0
 24 26  2  0
 26 27  1  0
 15 28  2  0
 28 29  1  0
 28 11  1  0
 27 17  1  0
 27 21  2  0
  1 30  1  0
  1 31  1  0
  1 32  1  0
  2 33  1  0
  2 34  1  0
  4 35  1  0
  4 36  1  0
  5 37  1  0
  5 38  1  0
  5 39  1  0
  6 40  1  0
  6 41  1  0
  7 42  1  0
  7 43  1  0
  8 44  1  0
 13 45  1  0
 13 46  1  0
 13 47  1  0
 14 48  1  0
 16 49  1  0
 20 50  1  0
 22 51  1  0
 23 52  1  0
 26 53  1  0
 29 54  1  0
 29 55  1  0
 29 56  1  0
M  END
$$$$
