
     RDKit          3D

 56 58  0  0  0  0  0  0  0  0999 V2000
  -33.3150  156.5880    4.6950 C   0  0  0  0  0  0  0  0  0  0  0  0
  -34.5040  157.5450    4.6730 C   0  0  0  0  0  0  0  0  0  0  0  0
  -35.7640  156.9240    4.2310 N   0  0  0  0  0  0  0  0  0  0  0  0
  -36.1480  155.7870    5.0840 C   0  0  0  0  0  0  0  0  0  0  0  0
  -36.6060  156.2170    6.4740 C   0  0  0  0  0  0  0  0  0  0  0  0
  -36.8760  157.8880    4.0880 C   0  0  0  0  0  0  0  0  0  0  0  0
  -38.1120  157.4170    3.2940 C   0  0  0  0  0  0  0  0  0  0  0  0
  -38.5730  158.4210    2.3560 N   0  0  0  0  0  0  0  0  0  0  0  0
  -39.9030  158.5480    2.0260 C   0  0  0  0  0  0  0  0  0  0  0  0
  -40.7780  157.8290    2.4970 O   0  0  0  0  0  0  0  0  0  0  0  0
  -40.1730  159.5810    1.0240 C   0  0  0  0  0  0  0  0  0  0  0  0
  -41.4130  160.1710    0.8340 C   0  0  0  0  0  0  0  0  0  0  0  0
  -42.7060  159.9570    1.5360 C   0  0  0  0  0  0  0  0  0  0  0  0
  -41.3050  161.0680   -0.1970 N   0  0  0  0  0  0  0  0  0  0  0  0
  -40.0220  161.1040   -0.6830 C   0  0  0  0  0  0  0  0  0  0  0  0
  -39.6370  161.9550   -1.7600 C   0  0  0  0  0  0  0  0  0  0  0  0
  -39.2110  161.6420   -2.9940 C   0  0  0  0  0  0  0  0  0  0  0  0
  -38.9910  160.3040   -3.6630 C   0  0  0  0  0  0  0  0  0  0  0  0
  -39.1590  159.1920   -3.2010 O   0  0  0  0  0  0  0  0  0  0  0  0
  -38.5450  160.5960   -4.9400 N   0  0  0  0  0  0  0  0  0  0  0  0
  -38.4590  161.9660   -5.1500 C   0  0  0  0  0  0  0  0  0  0  0  0
  -38.0510  162.5990   -6.3080 C   0  0  0  0  0  0  0  0  0  0  0  0
  -38.0390  163.9940   -6.3030 C   0  0  0  0  0  0  0  0  0  0  0  0
  -38.4310  164.6990   -5.1550 C   0  0  0  0  0  0  0  0  0  0  0  0
  -38.4100  166.0380   -5.1770 F   0  0  0  0  0  0  0  0  0  0  0  0
  -38.8410  164.0460   -3.9920 C   0  0  0  0  0  0  0  0  0  0  0  0
  -38.8510  162.6620   -4.0000 C   0  0  0  0  0  0  0  0  0  0  0  0
  -39.2770  160.2080    0.0830 C   0  0  0  0  0  0  0  0  0  0  0  0
  -37.8070  159.9650   -0.0320 C   0  0  0  0  0  0  0  0  0  0  0  0
  -33.0410  156.3675    5.7373 H   0  0  0  0  0  0  0  0  0  0  0  0
  -33.5867  155.6538    4.1818 H   0  0  0  0  0  0  0  0  0  0  0  0
  -32.4604  157.0531    4.1818 H   0  0  0  0  0  0  0  0  0  0  0  0
  -34.6503  157.9385    5.6897 H   0  0  0  0  0  0  0  0  0  0  0  0
  -34.2648  158.3335    3.9442 H   0  0  0  0  0  0  0  0  0  0  0  0
  -36.9704  155.2437    4.5957 H   0  0  0  0  0  0  0  0  0  0  0  0
  -35.2578  155.1534    5.2107 H   0  0  0  0  0  0  0  0  0  0  0  0
  -36.0271  155.6735    7.2352 H   0  0  0  0  0  0  0  0  0  0  0  0
  -36.4458  157.2986    6.5946 H   0  0  0  0  0  0  0  0  0  0  0  0
  -37.6753  155.9890    6.5946 H   0  0  0  0  0  0  0  0  0  0  0  0
  -37.2140  158.1575    5.0995 H   0  0  0  0  0  0  0  0  0  0  0  0
  -36.4595  158.7204    3.5018 H   0  0  0  0  0  0  0  0  0  0  0  0
  -37.8495  156.5054    2.7371 H   0  0  0  0  0  0  0  0  0  0  0  0
  -38.9233  157.2267    4.0120 H   0  0  0  0  0  0  0  0  0  0  0  0
  -37.8960  158.9320    1.8070 H   0  0  0  0  0  0  0  0  0  0  0  0
  -42.5418  159.9842    2.6233 H   0  0  0  0  0  0  0  0  0  0  0  0
  -43.4131  160.7503    1.2520 H   0  0  0  0  0  0  0  0  0  0  0  0
  -43.1198  158.9782    1.2520 H   0  0  0  0  0  0  0  0  0  0  0  0
  -42.0790  161.6290   -0.5410 H   0  0  0  0  0  0  0  0  0  0  0  0
  -39.6984  163.0325   -1.5475 H   0  0  0  0  0  0  0  0  0  0  0  0
  -38.3190  159.8790   -5.6130 H   0  0  0  0  0  0  0  0  0  0  0  0
  -37.7481  162.0268   -7.1973 H   0  0  0  0  0  0  0  0  0  0  0  0
  -37.7213  164.5429   -7.2018 H   0  0  0  0  0  0  0  0  0  0  0  0
  -39.1458  164.6119   -3.0993 H   0  0  0  0  0  0  0  0  0  0  0  0
  -37.3676  159.8924    0.9738 H   0  0  0  0  0  0  0  0  0  0  0  0
  -37.6322  159.0258   -0.5772 H   0  0  0  0  0  0  0  0  0  0  0  0
  -37.3392  160.7980   -0.5772 H   0  0  0  0  0  0  0  0  0  0  0  0
  1  2  1  0
  2  3  1  0
  3  4  1  0
  4  5  1  0
  3  6  1  0
  6  7  1  0
  7  8  1  0
  8  9  1  0
  9 10  2  0
  9 11  1  0
 11 12  2  0
 12 13  1  0
 12 14  1  0
 14 15  1  0
 15 16  1  0
 16 17  2  0
 17 18  1  0
 18 19  2  0
 18 20  1  0
 20 21  1  0
 21 22  1  0
 22 23  2  0
 23 24  1  0
 24 25  1  0
 24 26  2  0
 26 27  1  0
 15 28  2  0
 28 29  1  0
 28 11  1  0
 27 17  1  0
 27 21  2  0
  1 30  1  0
  1 31  1  0
  1 32  1  0
  2 33  1  0
  2 34  1  0
  4 35  1  0
  4 36  1  0
  5 37  1  0
  5 38  1  0
  5 39  1  0
  6 40  1  0
  6 41  1  0
  7 42  1  0
  7 43  1  0
  8 44  1  0
 13 45  1  0
 13 46  1  0
 13 47  1  0
 14 48  1  0
 16 49  1  0
 20 50  1  0
 22 51  1  0
 23 52  1  0
 26 53  1  0
 29 54  1  0
 29 55  1  0
 29 56  1  0
M  END
>  <meeko>  (1) 
{"is_sidechain": false}

>  <vina_affinity_kcal_mol>  (1) 
-10.095

>  <pose_rank>  (1) 
1

$$$$

     RDKit          3D

 56 58  0  0  0  0  0  0  0  0999 V2000
  -33.3900  156.9760    4.6560 C   0  0  0  0  0  0  0  0  0  0  0  0
  -34.7270  157.7050    4.7580 C   0  0  0  0  0  0  0  0  0  0  0  0
  -35.8560  156.9700    4.1650 N   0  0  0  0  0  0  0  0  0  0  0  0
  -36.1670  155.7390    4.9090 C   0  0  0  0  0  0  0  0  0  0  0  0
  -36.5420  156.0060    6.3640 C   0  0  0  0  0  0  0  0  0  0  0  0
  -37.0640  157.8020    3.9730 C   0  0  0  0  0  0  0  0  0  0  0  0
  -38.1880  157.2130    3.0970 C   0  0  0  0  0  0  0  0  0  0  0  0
  -38.5720  158.1090    2.0250 N   0  0  0  0  0  0  0  0  0  0  0  0
  -39.8870  158.4440    1.7960 C   0  0  0  0  0  0  0  0  0  0  0  0
  -40.8120  158.0100    2.4750 O   0  0  0  0  0  0  0  0  0  0  0  0
  -40.0880  159.3190    0.6390 C   0  0  0  0  0  0  0  0  0  0  0  0
  -41.1910  160.1400    0.4710 C   0  0  0  0  0  0  0  0  0  0  0  0
  -42.3770  160.3600    1.3410 C   0  0  0  0  0  0  0  0  0  0  0  0
  -41.0600  160.7920   -0.7280 N   0  0  0  0  0  0  0  0  0  0  0  0
  -39.8880  160.4400   -1.3500 C   0  0  0  0  0  0  0  0  0  0  0  0
  -39.5050  160.9750   -2.6150 C   0  0  0  0  0  0  0  0  0  0  0  0
  -39.0910  162.2120   -2.9360 C   0  0  0  0  0  0  0  0  0  0  0  0
  -38.8930  163.4480   -2.0890 C   0  0  0  0  0  0  0  0  0  0  0  0
  -39.0750  163.5830   -0.8940 O   0  0  0  0  0  0  0  0  0  0  0  0
  -38.4520  164.4290   -2.9610 N   0  0  0  0  0  0  0  0  0  0  0  0
  -38.3520  163.9490   -4.2590 C   0  0  0  0  0  0  0  0  0  0  0  0
  -37.9440  164.6600   -5.3720 C   0  0  0  0  0  0  0  0  0  0  0  0
  -37.9170  163.9800   -6.5900 C   0  0  0  0  0  0  0  0  0  0  0  0
  -38.2930  162.6290   -6.6520 C   0  0  0  0  0  0  0  0  0  0  0  0
  -38.2580  162.0010   -7.8350 F   0  0  0  0  0  0  0  0  0  0  0  0
  -38.7030  161.9240   -5.5210 C   0  0  0  0  0  0  0  0  0  0  0  0
  -38.7290  162.6020   -4.3140 C   0  0  0  0  0  0  0  0  0  0  0  0
  -39.2360  159.5440   -0.5040 C   0  0  0  0  0  0  0  0  0  0  0  0
  -37.8850  158.9480   -0.7280 C   0  0  0  0  0  0  0  0  0  0  0  0
  -33.0079  156.7677    5.6663 H   0  0  0  0  0  0  0  0  0  0  0  0
  -33.5292  156.0289    4.1141 H   0  0  0  0  0  0  0  0  0  0  0  0
  -32.6693  157.6060    4.1141 H   0  0  0  0  0  0  0  0  0  0  0  0
  -34.9469  157.8772    5.8220 H   0  0  0  0  0  0  0  0  0  0  0  0
  -34.6232  158.6414    4.1902 H   0  0  0  0  0  0  0  0  0  0  0  0
  -37.0105  155.2338    4.4157 H   0  0  0  0  0  0  0  0  0  0  0  0
  -35.2613  155.1147    4.9097 H   0  0  0  0  0  0  0  0  0  0  0  0
  -35.8266  155.4967    7.0264 H   0  0  0  0  0  0  0  0  0  0  0  0
  -36.5139  157.0885    6.5572 H   0  0  0  0  0  0  0  0  0  0  0  0
  -37.5558  155.6253    6.5572 H   0  0  0  0  0  0  0  0  0  0  0  0
  -37.4894  158.0037    4.9672 H   0  0  0  0  0  0  0  0  0  0  0  0
  -36.7144  158.6917    3.4288 H   0  0  0  0  0  0  0  0  0  0  0  0
  -37.8372  156.2667    2.6594 H   0  0  0  0  0  0  0  0  0  0  0  0
  -39.0683  157.0555    3.7375 H   0  0  0  0  0  0  0  0  0  0  0  0
  -37.8870  158.3680    1.3290 H   0  0  0  0  0  0  0  0  0  0  0  0
  -42.0729  160.3036    2.3966 H   0  0  0  0  0  0  0  0  0  0  0  0
  -42.8038  161.3526    1.1349 H   0  0  0  0  0  0  0  0  0  0  0  0
  -43.1315  159.5865    1.1349 H   0  0  0  0  0  0  0  0  0  0  0  0
  -41.7440  161.4480   -1.0920 H   0  0  0  0  0  0  0  0  0  0  0  0
  -39.5563  160.2674   -3.4556 H   0  0  0  0  0  0  0  0  0  0  0  0
  -38.2360  165.3670   -2.6580 H   0  0  0  0  0  0  0  0  0  0  0  0
  -37.6526  165.7183   -5.3004 H   0  0  0  0  0  0  0  0  0  0  0  0
  -37.6003  164.5039   -7.5039 H   0  0  0  0  0  0  0  0  0  0  0  0
  -38.9957  160.8656   -5.5854 H   0  0  0  0  0  0  0  0  0  0  0  0
  -37.4110  158.7389    0.2424 H   0  0  0  0  0  0  0  0  0  0  0  0
  -37.9870  158.0113   -1.2957 H   0  0  0  0  0  0  0  0  0  0  0  0
  -37.2620  159.6548   -1.2957 H   0  0  0  0  0  0  0  0  0  0  0  0
  1  2  1  0
  2  3  1  0
  3  4  1  0
  4  5  1  0
  3  6  1  0
  6  7  1  0
  7  8  1  0
  8  9  1  0
  9 10  2  0
  9 11  1  0
 11 12  2  0
 12 13  1  0
 12 14  1  0
 14 15  1  0
 15 16  1  0
 16 17  2  0
 17 18  1  0
 18 19  2  0
 18 20  1  0
 20 21  1  0
 21 22  1  0
 22 23  2  0
 23 24  1  0
 24 25  1  0
 24 26  2  0
 26 27  1  0
 15 28  2  0
 28 29  1  0
 28 11  1  0
 27 17  1  0
 27 21  2  0
  1 30  1  0
  1 31  1  0
  1 32  1  0
  2 33  1  0
  2 34  1  0
  4 35  1  0
  4 36  1  0
  5 37  1  0
  5 38  1  0
  5 39  1  0
  6 40  1  0
  6 41  1  0
  7 42  1  0
  7 43  1  0
  8 44  1  0
 13 45  1  0
 13 46  1  0
 13 47  1  0
 14 48  1  0
 16 49  1  0
 20 50  1  0
 22 51  1  0
 23 52  1  0
 26 53  1  0
 29 54  1  0
 29 55  1  0
 29 56  1  0
M  END
>  <meeko>  (2) 
{"is_sidechain": false}

>  <vina_affinity_kcal_mol>  (2) 
-9.81

>  <pose_rank>  (2) 
2

$$$$

     RDKit          3D

 56 58  0  0  0  0  0  0  0  0999 V2000
  -36.0870  166.5670  -10.9080 C   0  0  0  0  0  0  0  0  0  0  0  0
  -37.5560  166.3120  -11.2340 C   0  0  0  0  0  0  0  0  0  0  0  0
  -38.1840  165.2770  -10.3950 N   0  0  0  0  0  0  0  0  0  0  0  0
  -38.3420  164.0030  -11.1160 C   0  0  0  0  0  0  0  0  0  0  0  0
  -38.4820  162.8070  -10.1790 C   0  0  0  0  0  0  0  0  0  0  0  0
  -37.5050  165.0800   -9.0970 C   0  0  0  0  0  0  0  0  0  0  0  0
  -38.1920  165.6740   -7.8500 C   0  0  0  0  0  0  0  0  0  0  0  0
  -38.6040  164.6480   -6.9130 N   0  0  0  0  0  0  0  0  0  0  0  0
  -37.8170  164.2850   -5.8430 C   0  0  0  0  0  0  0  0  0  0  0  0
  -36.7270  164.7980   -5.6150 O   0  0  0  0  0  0  0  0  0  0  0  0
  -38.3720  163.1960   -5.0370 C   0  0  0  0  0  0  0  0  0  0  0  0
  -38.4730  161.8840   -5.4710 C   0  0  0  0  0  0  0  0  0  0  0  0
  -38.0730  161.2560   -6.7580 C   0  0  0  0  0  0  0  0  0  0  0  0
  -39.0590  161.1480   -4.4740 N   0  0  0  0  0  0  0  0  0  0  0  0
  -39.3320  161.9340   -3.3820 C   0  0  0  0  0  0  0  0  0  0  0  0
  -39.9440  161.4150   -2.2030 C   0  0  0  0  0  0  0  0  0  0  0  0
  -39.5300  160.4410   -1.3760 C   0  0  0  0  0  0  0  0  0  0  0  0
  -38.2970  159.5670   -1.4040 C   0  0  0  0  0  0  0  0  0  0  0  0
  -37.3900  159.5650   -2.2140 O   0  0  0  0  0  0  0  0  0  0  0  0
  -38.4010  158.7420   -0.2970 N   0  0  0  0  0  0  0  0  0  0  0  0
  -39.5610  158.9980    0.4220 C   0  0  0  0  0  0  0  0  0  0  0  0
  -39.9730  158.3600    1.5760 C   0  0  0  0  0  0  0  0  0  0  0  0
  -41.1790  158.7760    2.1400 C   0  0  0  0  0  0  0  0  0  0  0  0
  -41.9220  159.8040    1.5390 C   0  0  0  0  0  0  0  0  0  0  0  0
  -43.0770  160.1840    2.1010 F   0  0  0  0  0  0  0  0  0  0  0  0
  -41.4930  160.4400    0.3740 C   0  0  0  0  0  0  0  0  0  0  0  0
  -40.2960  160.0250   -0.1830 C   0  0  0  0  0  0  0  0  0  0  0  0
  -38.8820  163.2170   -3.6870 C   0  0  0  0  0  0  0  0  0  0  0  0
  -38.8980  164.3950   -2.7680 C   0  0  0  0  0  0  0  0  0  0  0  0
  -35.9523  166.5904   -9.8165 H   0  0  0  0  0  0  0  0  0  0  0  0
  -35.4713  165.7623  -11.3363 H   0  0  0  0  0  0  0  0  0  0  0  0
  -35.7786  167.5321  -11.3363 H   0  0  0  0  0  0  0  0  0  0  0  0
  -38.1095  167.2525  -11.0957 H   0  0  0  0  0  0  0  0  0  0  0  0
  -37.5936  165.9476  -12.2712 H   0  0  0  0  0  0  0  0  0  0  0  0
  -39.2425  164.0643  -11.7447 H   0  0  0  0  0  0  0  0  0  0  0  0
  -37.4342  163.8480  -11.7176 H   0  0  0  0  0  0  0  0  0  0  0  0
  -38.4416  163.1522   -9.1353 H   0  0  0  0  0  0  0  0  0  0  0  0
  -39.4447  162.3077  -10.3631 H   0  0  0  0  0  0  0  0  0  0  0  0
  -37.6606  162.0989  -10.3631 H   0  0  0  0  0  0  0  0  0  0  0  0
  -37.4046  163.9965   -8.9361 H   0  0  0  0  0  0  0  0  0  0  0  0
  -36.5540  165.6256   -9.1864 H   0  0  0  0  0  0  0  0  0  0  0  0
  -37.4874  166.3520   -7.3462 H   0  0  0  0  0  0  0  0  0  0  0  0
  -39.0931  166.2098   -8.1830 H   0  0  0  0  0  0  0  0  0  0  0  0
  -39.4030  164.0700   -7.1320 H   0  0  0  0  0  0  0  0  0  0  0  0
  -37.4921  160.3440   -6.5560 H   0  0  0  0  0  0  0  0  0  0  0  0
  -38.9730  160.9972   -7.3351 H   0  0  0  0  0  0  0  0  0  0  0  0
  -37.4580  161.9622   -7.3351 H   0  0  0  0  0  0  0  0  0  0  0  0
  -39.2560  160.1540   -4.5470 H   0  0  0  0  0  0  0  0  0  0  0  0
  -40.9007  161.8837   -1.9293 H   0  0  0  0  0  0  0  0  0  0  0  0
  -37.7030  158.0510   -0.0680 H   0  0  0  0  0  0  0  0  0  0  0  0
  -39.3747  157.5571    2.0313 H   0  0  0  0  0  0  0  0  0  0  0  0
  -41.5489  158.2970    3.0585 H   0  0  0  0  0  0  0  0  0  0  0  0
  -42.0859  161.2441   -0.0863 H   0  0  0  0  0  0  0  0  0  0  0  0
  -38.8933  164.0463   -1.7248 H   0  0  0  0  0  0  0  0  0  0  0  0
  -38.0082  165.0152   -2.9513 H   0  0  0  0  0  0  0  0  0  0  0  0
  -39.8043  164.9908   -2.9513 H   0  0  0  0  0  0  0  0  0  0  0  0
  1  2  1  0
  2  3  1  0
  3  4  1  0
  4  5  1  0
  3  6  1  0
  6  7  1  0
  7  8  1  0
  8  9  1  0
  9 10  2  0
  9 11  1  0
 11 12  2  0
 12 13  1  0
 12 14  1  0
 14 15  1  0
 15 16  1  0
 16 17  2  0
 17 18  1  0
 18 19  2  0
 18 20  1  0
 20 21  1  0
 21 22  1  0
 22 23  2  0
 23 24  1  0
 24 25  1  0
 24 26  2  0
 26 27  1  0
 15 28  2  0
 28 29  1  0
 28 11  1  0
 27 17  1  0
 27 21  2  0
  1 30  1  0
  1 31  1  0
  1 32  1  0
  2 33  1  0
  2 34  1  0
  4 35  1  0
  4 36  1  0
  5 37  1  0
  5 38  1  0
  5 39  1  0
  6 40  1  0
  6 41  1  0
  7 42  1  0
  7 43  1  0
  8 44  1  0
 13 45  1  0
 13 46  1  0
 13 47  1  0
 14 48  1  0
 16 49  1  0
 20 50  1  0
 22 51  1  0
 23 52  1  0
 26 53  1  0
 29 54  1  0
 29 55  1  0
 29 56  1  0
M  END
>  <meeko>  (3) 
{"is_sidechain": false}

>  <vina_affinity_kcal_mol>  (3) 
-9.606

>  <pose_rank>  (3) 
3

$$$$

     RDKit          3D

 56 58  0  0  0  0  0  0  0  0999 V2000
  -34.8760  163.7410  -10.9680 C   0  0  0  0  0  0  0  0  0  0  0  0
  -36.0870  164.6610  -11.0950 C   0  0  0  0  0  0  0  0  0  0  0  0
  -37.0770  164.5000  -10.0170 N   0  0  0  0  0  0  0  0  0  0  0  0
  -37.7700  165.7620   -9.7100 C   0  0  0  0  0  0  0  0  0  0  0  0
  -38.2140  165.8540   -8.2530 C   0  0  0  0  0  0  0  0  0  0  0  0
  -38.0390  163.4040  -10.2610 C   0  0  0  0  0  0  0  0  0  0  0  0
  -37.8740  162.1260   -9.4130 C   0  0  0  0  0  0  0  0  0  0  0  0
  -38.2590  162.3330   -8.0310 N   0  0  0  0  0  0  0  0  0  0  0  0
  -37.3570  162.1970   -7.0000 C   0  0  0  0  0  0  0  0  0  0  0  0
  -36.1830  161.8930   -7.1790 O   0  0  0  0  0  0  0  0  0  0  0  0
  -37.9380  162.3930   -5.6700 C   0  0  0  0  0  0  0  0  0  0  0  0
  -37.7180  163.5150   -4.8870 C   0  0  0  0  0  0  0  0  0  0  0  0
  -36.9130  164.7370   -5.1490 C   0  0  0  0  0  0  0  0  0  0  0  0
  -38.3910  163.3490   -3.7050 N   0  0  0  0  0  0  0  0  0  0  0  0
  -39.0690  162.1550   -3.6910 C   0  0  0  0  0  0  0  0  0  0  0  0
  -39.8520  161.7350   -2.5760 C   0  0  0  0  0  0  0  0  0  0  0  0
  -39.6320  160.7470   -1.6930 C   0  0  0  0  0  0  0  0  0  0  0  0
  -38.5020  159.7500   -1.5750 C   0  0  0  0  0  0  0  0  0  0  0  0
  -37.5200  159.6330   -2.2830 O   0  0  0  0  0  0  0  0  0  0  0  0
  -38.8070  158.9720   -0.4720 N   0  0  0  0  0  0  0  0  0  0  0  0
  -40.0020  159.3660    0.1150 C   0  0  0  0  0  0  0  0  0  0  0  0
  -40.5980  158.8050    1.2290 C   0  0  0  0  0  0  0  0  0  0  0  0
  -41.8060  159.3590    1.6530 C   0  0  0  0  0  0  0  0  0  0  0  0
  -42.3690  160.4410    0.9590 C   0  0  0  0  0  0  0  0  0  0  0  0
  -43.5300  160.9530    1.3890 F   0  0  0  0  0  0  0  0  0  0  0  0
  -41.7560  160.9970   -0.1640 C   0  0  0  0  0  0  0  0  0  0  0  0
  -40.5580  160.4450   -0.5820 C   0  0  0  0  0  0  0  0  0  0  0  0
  -38.8350  161.5450   -4.9230 C   0  0  0  0  0  0  0  0  0  0  0  0
  -39.4310  160.2590   -5.3940 C   0  0  0  0  0  0  0  0  0  0  0  0
  -34.6538  163.5722   -9.9040 H   0  0  0  0  0  0  0  0  0  0  0  0
  -35.0940  162.7787  -11.4542 H   0  0  0  0  0  0  0  0  0  0  0  0
  -34.0074  164.2090  -11.4542 H   0  0  0  0  0  0  0  0  0  0  0  0
  -35.7327  165.7023  -11.0866 H   0  0  0  0  0  0  0  0  0  0  0  0
  -36.5929  164.3933  -12.0344 H   0  0  0  0  0  0  0  0  0  0  0  0
  -37.0879  166.5983   -9.9229 H   0  0  0  0  0  0  0  0  0  0  0  0
  -38.6743  165.8035  -10.3349 H   0  0  0  0  0  0  0  0  0  0  0  0
  -37.3510  165.6752   -7.5947 H   0  0  0  0  0  0  0  0  0  0  0  0
  -38.6233  166.8560   -8.0570 H   0  0  0  0  0  0  0  0  0  0  0  0
  -38.9878  165.0971   -8.0570 H   0  0  0  0  0  0  0  0  0  0  0  0
  -39.0478  163.7997  -10.0721 H   0  0  0  0  0  0  0  0  0  0  0  0
  -37.8525  163.0855  -11.2972 H   0  0  0  0  0  0  0  0  0  0  0  0
  -38.5042  161.3327   -9.8414 H   0  0  0  0  0  0  0  0  0  0  0  0
  -36.8107  161.8448   -9.4291 H   0  0  0  0  0  0  0  0  0  0  0  0
  -39.2380  162.4190   -7.7990 H   0  0  0  0  0  0  0  0  0  0  0  0
  -36.6139  165.1910   -4.1928 H   0  0  0  0  0  0  0  0  0  0  0  0
  -36.0147  164.4680   -5.7241 H   0  0  0  0  0  0  0  0  0  0  0  0
  -37.5147  165.4562   -5.7241 H   0  0  0  0  0  0  0  0  0  0  0  0
  -38.3840  164.0290   -2.9500 H   0  0  0  0  0  0  0  0  0  0  0  0
  -40.7774  162.3073   -2.4142 H   0  0  0  0  0  0  0  0  0  0  0  0
  -38.2130  158.2190   -0.1580 H   0  0  0  0  0  0  0  0  0  0  0  0
  -40.1390  157.9573    1.7589 H   0  0  0  0  0  0  0  0  0  0  0  0
  -42.3190  158.9464    2.5343 H   0  0  0  0  0  0  0  0  0  0  0  0
  -42.2093  161.8448   -0.6986 H   0  0  0  0  0  0  0  0  0  0  0  0
  -39.7148  159.6466   -4.5254 H   0  0  0  0  0  0  0  0  0  0  0  0
  -40.3234  160.4693   -6.0017 H   0  0  0  0  0  0  0  0  0  0  0  0
  -38.6937  159.7140   -6.0017 H   0  0  0  0  0  0  0  0  0  0  0  0
  1  2  1  0
  2  3  1  0
  3  4  1  0
  4  5  1  0
  3  6  1  0
  6  7  1  0
  7  8  1  0
  8  9  1  0
  9 10  2  0
  9 11  1  0
 11 12  2  0
 12 13  1  0
 12 14  1  0
 14 15  1  0
 15 16  1  0
 16 17  2  0
 17 18  1  0
 18 19  2  0
 18 20  1  0
 20 21  1  0
 21 22  1  0
 22 23  2  0
 23 24  1  0
 24 25  1  0
 24 26  2  0
 26 27  1  0
 15 28  2  0
 28 29  1  0
 28 11  1  0
 27 17  1  0
 27 21  2  0
  1 30  1  0
  1 31  1  0
  1 32  1  0
  2 33  1  0
  2 34  1  0
  4 35  1  0
  4 36  1  0
  5 37  1  0
  5 38  1  0
  5 39  1  0
  6 40  1  0
  6 41  1  0
  7 42  1  0
  7 43  1  0
  8 44  1  0
 13 45  1  0
 13 46  1  0
 13 47  1  0
 14 48  1  0
 16 49  1  0
 20 50  1  0
 22 51  1  0
 23 52  1  0
 26 53  1  0
 29 54  1  0
 29 55  1  0
 29 56  1  0
M  END
>  <meeko>  (4) 
{"is_sidechain": false}

>  <vina_affinity_kcal_mol>  (4) 
-9.598

>  <pose_rank>  (4) 
4

$$$$

     RDKit          3D

 56 58  0  0  0  0  0  0  0  0999 V2000
  -41.6320  158.3710    2.6460 C   0  0  0  0  0  0  0  0  0  0  0  0
  -40.1130  158.3710    2.4970 C   0  0  0  0  0  0  0  0  0  0  0  0
  -39.6240  159.1560    1.3510 N   0  0  0  0  0  0  0  0  0  0  0  0
  -38.4630  158.5230    0.7040 C   0  0  0  0  0  0  0  0  0  0  0  0
  -38.7800  157.9870   -0.6880 C   0  0  0  0  0  0  0  0  0  0  0  0
  -40.6780  159.4790    0.3660 C   0  0  0  0  0  0  0  0  0  0  0  0
  -40.8440  160.9630   -0.0200 C   0  0  0  0  0  0  0  0  0  0  0  0
  -40.3860  161.2300   -1.3690 N   0  0  0  0  0  0  0  0  0  0  0  0
  -39.3540  162.1050   -1.6240 C   0  0  0  0  0  0  0  0  0  0  0  0
  -38.7610  162.7100   -0.7380 O   0  0  0  0  0  0  0  0  0  0  0  0
  -39.0660  162.2880   -3.0470 C   0  0  0  0  0  0  0  0  0  0  0  0
  -38.9030  161.2460   -3.9460 C   0  0  0  0  0  0  0  0  0  0  0  0
  -38.9800  159.7740   -3.7460 C   0  0  0  0  0  0  0  0  0  0  0  0
  -38.6210  161.7810   -5.1750 N   0  0  0  0  0  0  0  0  0  0  0  0
  -38.6120  163.1530   -5.1210 C   0  0  0  0  0  0  0  0  0  0  0  0
  -38.3440  163.9590   -6.2660 C   0  0  0  0  0  0  0  0  0  0  0  0
  -38.0050  163.5970   -7.5140 C   0  0  0  0  0  0  0  0  0  0  0  0
  -37.7890  162.2340   -8.1320 C   0  0  0  0  0  0  0  0  0  0  0  0
  -37.8810  161.1420   -7.6050 O   0  0  0  0  0  0  0  0  0  0  0  0
  -37.4550  162.4750   -9.4540 N   0  0  0  0  0  0  0  0  0  0  0  0
  -37.4350  163.8330   -9.7360 C   0  0  0  0  0  0  0  0  0  0  0  0
  -37.1430  164.4190  -10.9530 C   0  0  0  0  0  0  0  0  0  0  0  0
  -37.1810  165.8120  -11.0160 C   0  0  0  0  0  0  0  0  0  0  0  0
  -37.5070  166.5620   -9.8760 C   0  0  0  0  0  0  0  0  0  0  0  0
  -37.5350  167.8990   -9.9650 F   0  0  0  0  0  0  0  0  0  0  0  0
  -37.8000  165.9570   -8.6540 C   0  0  0  0  0  0  0  0  0  0  0  0
  -37.7610  164.5750   -8.5940 C   0  0  0  0  0  0  0  0  0  0  0  0
  -38.9210  163.5060   -3.8090 C   0  0  0  0  0  0  0  0  0  0  0  0
  -39.1000  164.8960   -3.2920 C   0  0  0  0  0  0  0  0  0  0  0  0
  -41.9969  157.3339    2.6818 H   0  0  0  0  0  0  0  0  0  0  0  0
  -41.9092  158.8895    3.5756 H   0  0  0  0  0  0  0  0  0  0  0  0
  -42.0846  158.8895    1.7879 H   0  0  0  0  0  0  0  0  0  0  0  0
  -39.6753  158.7897    3.4152 H   0  0  0  0  0  0  0  0  0  0  0  0
  -39.8103  157.3282    2.3211 H   0  0  0  0  0  0  0  0  0  0  0  0
  -37.6588  159.2686    0.6185 H   0  0  0  0  0  0  0  0  0  0  0  0
  -38.1629  157.6677    1.3272 H   0  0  0  0  0  0  0  0  0  0  0  0
  -39.3381  157.0433   -0.5992 H   0  0  0  0  0  0  0  0  0  0  0  0
  -39.3883  158.7227   -1.2345 H   0  0  0  0  0  0  0  0  0  0  0  0
  -37.8422  157.8083   -1.2345 H   0  0  0  0  0  0  0  0  0  0  0  0
  -40.4548  158.9196   -0.5545 H   0  0  0  0  0  0  0  0  0  0  0  0
  -41.6228  159.2042    0.8578 H   0  0  0  0  0  0  0  0  0  0  0  0
  -41.9082  161.2316    0.0529 H   0  0  0  0  0  0  0  0  0  0  0  0
  -40.2328  161.5630    0.6702 H   0  0  0  0  0  0  0  0  0  0  0  0
  -40.9340  160.9000   -2.1510 H   0  0  0  0  0  0  0  0  0  0  0  0
  -38.9917  159.5504   -2.6690 H   0  0  0  0  0  0  0  0  0  0  0  0
  -39.8995  159.3885   -4.2105 H   0  0  0  0  0  0  0  0  0  0  0  0
  -38.1057  159.2946   -4.2105 H   0  0  0  0  0  0  0  0  0  0  0  0
  -38.4490  161.2250   -6.0080 H   0  0  0  0  0  0  0  0  0  0  0  0
  -38.4277  165.0435   -6.1021 H   0  0  0  0  0  0  0  0  0  0  0  0
  -37.2570  161.7310  -10.1070 H   0  0  0  0  0  0  0  0  0  0  0  0
  -36.8911  163.8123  -11.8353 H   0  0  0  0  0  0  0  0  0  0  0  0
  -36.9546  166.3242  -11.9628 H   0  0  0  0  0  0  0  0  0  0  0  0
  -38.0534  166.5578   -7.7681 H   0  0  0  0  0  0  0  0  0  0  0  0
  -39.0981  164.8812   -2.1921 H   0  0  0  0  0  0  0  0  0  0  0  0
  -38.2761  165.5299   -3.6516 H   0  0  0  0  0  0  0  0  0  0  0  0
  -40.0576  165.3005   -3.6516 H   0  0  0  0  0  0  0  0  0  0  0  0
  1  2  1  0
  2  3  1  0
  3  4  1  0
  4  5  1  0
  3  6  1  0
  6  7  1  0
  7  8  1  0
  8  9  1  0
  9 10  2  0
  9 11  1  0
 11 12  2  0
 12 13  1  0
 12 14  1  0
 14 15  1  0
 15 16  1  0
 16 17  2  0
 17 18  1  0
 18 19  2  0
 18 20  1  0
 20 21  1  0
 21 22  1  0
 22 23  2  0
 23 24  1  0
 24 25  1  0
 24 26  2  0
 26 27  1  0
 15 28  2  0
 28 29  1  0
 28 11  1  0
 27 17  1  0
 27 21  2  0
  1 30  1  0
  1 31  1  0
  1 32  1  0
  2 33  1  0
  2 34  1  0
  4 35  1  0
  4 36  1  0
  5 37  1  0
  5 38  1  0
  5 39  1  0
  6 40  1  0
  6 41  1  0
  7 42  1  0
  7 43  1  0
  8 44  1  0
 13 45  1  0
 13 46  1  0
 13 47  1  0
 14 48  1  0
 16 49  1  0
 20 50  1  0
 22 51  1  0
 23 52  1  0
 26 53  1  0
 29 54  1  0
 29 55  1  0
 29 56  1  0
M  END
>  <meeko>  (5) 
{"is_sidechain": false}

>  <vina_affinity_kcal_mol>  (5) 
-9.537

>  <pose_rank>  (5) 
5

$$$$

     RDKit          3D

 56 58  0  0  0  0  0  0  0  0999 V2000
  -41.7220  158.3710    2.6580 C   0  0  0  0  0  0  0  0  0  0  0  0
  -40.2100  158.4730    2.4770 C   0  0  0  0  0  0  0  0  0  0  0  0
  -39.7990  159.0940    1.2080 N   0  0  0  0  0  0  0  0  0  0  0  0
  -38.6200  158.4320    0.6240 C   0  0  0  0  0  0  0  0  0  0  0  0
  -38.7990  158.1000   -0.8540 C   0  0  0  0  0  0  0  0  0  0  0  0
  -40.8960  159.2030    0.2230 C   0  0  0  0  0  0  0  0  0  0  0  0
  -41.3410  160.6260   -0.1750 C   0  0  0  0  0  0  0  0  0  0  0  0
  -40.6790  161.0890   -1.3780 N   0  0  0  0  0  0  0  0  0  0  0  0
  -39.5030  161.8020   -1.3290 C   0  0  0  0  0  0  0  0  0  0  0  0
  -38.9430  162.0920   -0.2770 O   0  0  0  0  0  0  0  0  0  0  0  0
  -39.0100  162.2300   -2.6400 C   0  0  0  0  0  0  0  0  0  0  0  0
  -38.6490  163.5330   -2.9440 C   0  0  0  0  0  0  0  0  0  0  0  0
  -38.6450  164.7590   -2.1030 C   0  0  0  0  0  0  0  0  0  0  0  0
  -38.2620  163.5730   -4.2580 N   0  0  0  0  0  0  0  0  0  0  0  0
  -38.3380  162.3270   -4.8290 C   0  0  0  0  0  0  0  0  0  0  0  0
  -37.9920  162.0900   -6.1920 C   0  0  0  0  0  0  0  0  0  0  0  0
  -37.9650  162.9380   -7.2330 C   0  0  0  0  0  0  0  0  0  0  0  0
  -38.2900  164.4110   -7.3270 C   0  0  0  0  0  0  0  0  0  0  0  0
  -38.6580  165.1620   -6.4440 O   0  0  0  0  0  0  0  0  0  0  0  0
  -38.0850  164.7530   -8.6520 N   0  0  0  0  0  0  0  0  0  0  0  0
  -37.6680  163.6610   -9.4020 C   0  0  0  0  0  0  0  0  0  0  0  0
  -37.3750  163.6510  -10.7520 C   0  0  0  0  0  0  0  0  0  0  0  0
  -36.9720  162.4380  -11.3090 C   0  0  0  0  0  0  0  0  0  0  0  0
  -36.8770  161.2900  -10.5070 C   0  0  0  0  0  0  0  0  0  0  0  0
  -36.4880  160.1370  -11.0690 F   0  0  0  0  0  0  0  0  0  0  0  0
  -37.1770  161.3150   -9.1450 C   0  0  0  0  0  0  0  0  0  0  0  0
  -37.5760  162.5200   -8.5960 C   0  0  0  0  0  0  0  0  0  0  0  0
  -38.7710  161.4540   -3.8330 C   0  0  0  0  0  0  0  0  0  0  0  0
  -38.9290  159.9750   -3.9680 C   0  0  0  0  0  0  0  0  0  0  0  0
  -41.9625  158.3548    3.7313 H   0  0  0  0  0  0  0  0  0  0  0  0
  -42.2071  159.2385    2.1866 H   0  0  0  0  0  0  0  0  0  0  0  0
  -42.0862  157.4462    2.1866 H   0  0  0  0  0  0  0  0  0  0  0  0
  -39.8025  159.0735    3.3037 H   0  0  0  0  0  0  0  0  0  0  0  0
  -39.8207  157.4442    2.4682 H   0  0  0  0  0  0  0  0  0  0  0  0
  -37.7528  159.1001    0.7314 H   0  0  0  0  0  0  0  0  0  0  0  0
  -38.4736  157.4831    1.1608 H   0  0  0  0  0  0  0  0  0  0  0  0
  -39.3189  157.1357   -0.9528 H   0  0  0  0  0  0  0  0  0  0  0  0
  -39.3941  158.8887   -1.3375 H   0  0  0  0  0  0  0  0  0  0  0  0
  -37.8130  158.0362   -1.3375 H   0  0  0  0  0  0  0  0  0  0  0  0
  -40.5716  158.6882   -0.6934 H   0  0  0  0  0  0  0  0  0  0  0  0
  -41.7711  158.7583    0.7195 H   0  0  0  0  0  0  0  0  0  0  0  0
  -42.4274  160.6225   -0.3473 H   0  0  0  0  0  0  0  0  0  0  0  0
  -41.0684  161.3072    0.6445 H   0  0  0  0  0  0  0  0  0  0  0  0
  -41.1650  161.0330   -2.2620 H   0  0  0  0  0  0  0  0  0  0  0  0
  -38.6459  164.4747   -1.0404 H   0  0  0  0  0  0  0  0  0  0  0  0
  -37.7449  165.3518   -2.3232 H   0  0  0  0  0  0  0  0  0  0  0  0
  -39.5412  165.3576   -2.3232 H   0  0  0  0  0  0  0  0  0  0  0  0
  -37.9580  164.4190   -4.7320 H   0  0  0  0  0  0  0  0  0  0  0  0
  -37.7032  161.0548   -6.4264 H   0  0  0  0  0  0  0  0  0  0  0  0
  -38.2270  165.6900   -8.9990 H   0  0  0  0  0  0  0  0  0  0  0  0
  -37.4563  164.5625  -11.3624 H   0  0  0  0  0  0  0  0  0  0  0  0
  -36.7278  162.3805  -12.3800 H   0  0  0  0  0  0  0  0  0  0  0  0
  -37.0989  160.4073   -8.5286 H   0  0  0  0  0  0  0  0  0  0  0  0
  -38.9777  159.5187   -2.9683 H   0  0  0  0  0  0  0  0  0  0  0  0
  -39.8559  159.7539   -4.5176 H   0  0  0  0  0  0  0  0  0  0  0  0
  -38.0697  159.5631   -4.5176 H   0  0  0  0  0  0  0  0  0  0  0  0
  1  2  1  0
  2  3  1  0
  3  4  1  0
  4  5  1  0
  3  6  1  0
  6  7  1  0
  7  8  1  0
  8  9  1  0
  9 10  2  0
  9 11  1  0
 11 12  2  0
 12 13  1  0
 12 14  1  0
 14 15  1  0
 15 16  1  0
 16 17  2  0
 17 18  1  0
 18 19  2  0
 18 20  1  0
 20 21  1  0
 21 22  1  0
 22 23  2  0
 23 24  1  0
 24 25  1  0
 24 26  2  0
 26 27  1  0
 15 28  2  0
 28 29  1  0
 28 11  1  0
 27 17  1  0
 27 21  2  0
  1 30  1  0
  1 31  1  0
  1 32  1  0
  2 33  1  0
  2 34  1  0
  4 35  1  0
  4 36  1  0
  5 37  1  0
  5 38  1  0
  5 39  1  0
  6 40  1  0
  6 41  1  0
  7 42  1  0
  7 43  1  0
  8 44  1  0
 13 45  1  0
 13 46  1  0
 13 47  1  0
 14 48  1  0
 16 49  1  0
 20 50  1  0
 22 51  1  0
 23 52  1  0
 26 53  1  0
 29 54  1  0
 29 55  1  0
 29 56  1  0
M  END
>  <meeko>  (6) 
{"is_sidechain": false}

>  <vina_affinity_kcal_mol>  (6) 
-9.477

>  <pose_rank>  (6) 
6

$$$$

     RDKit          3D

 56 58  0  0  0  0  0  0  0  0999 V2000
  -41.6390  158.7510    2.1620 C   0  0  0  0  0  0  0  0  0  0  0  0
  -40.3030  159.3680    1.7580 C   0  0  0  0  0  0  0  0  0  0  0  0
  -39.4390  158.4660    0.9790 N   0  0  0  0  0  0  0  0  0  0  0  0
  -39.0560  159.0510   -0.3170 C   0  0  0  0  0  0  0  0  0  0  0  0
  -38.5820  158.0050   -1.3220 C   0  0  0  0  0  0  0  0  0  0  0  0
  -38.2540  157.9940    1.7260 C   0  0  0  0  0  0  0  0  0  0  0  0
  -38.3050  158.1080    3.2640 C   0  0  0  0  0  0  0  0  0  0  0  0
  -37.5340  157.0680    3.9140 N   0  0  0  0  0  0  0  0  0  0  0  0
  -36.8140  157.3100    5.0620 C   0  0  0  0  0  0  0  0  0  0  0  0
  -36.7770  158.4090    5.6050 O   0  0  0  0  0  0  0  0  0  0  0  0
  -36.0560  156.1540    5.5460 C   0  0  0  0  0  0  0  0  0  0  0  0
  -34.7090  155.9500    5.2910 C   0  0  0  0  0  0  0  0  0  0  0  0
  -33.7300  156.7740    4.5340 C   0  0  0  0  0  0  0  0  0  0  0  0
  -34.3400  154.7640    5.8710 N   0  0  0  0  0  0  0  0  0  0  0  0
  -35.4020  154.1860    6.5200 C   0  0  0  0  0  0  0  0  0  0  0  0
  -35.2900  152.9420    7.2090 C   0  0  0  0  0  0  0  0  0  0  0  0
  -35.8900  151.7660    6.9640 C   0  0  0  0  0  0  0  0  0  0  0  0
  -36.8800  151.3550    5.8980 C   0  0  0  0  0  0  0  0  0  0  0  0
  -37.3550  152.0320    5.0060 O   0  0  0  0  0  0  0  0  0  0  0  0
  -37.1510  150.0190    6.1380 N   0  0  0  0  0  0  0  0  0  0  0  0
  -36.4450  149.5440    7.2350 C   0  0  0  0  0  0  0  0  0  0  0  0
  -36.4820  148.2610    7.7470 C   0  0  0  0  0  0  0  0  0  0  0  0
  -35.6890  147.9970    8.8640 C   0  0  0  0  0  0  0  0  0  0  0  0
  -34.8950  149.0110    9.4220 C   0  0  0  0  0  0  0  0  0  0  0  0
  -34.1440  148.7290   10.4950 F   0  0  0  0  0  0  0  0  0  0  0  0
  -34.8680  150.3020    8.8940 C   0  0  0  0  0  0  0  0  0  0  0  0
  -35.6560  150.5610    7.7870 C   0  0  0  0  0  0  0  0  0  0  0  0
  -36.4860  155.0480    6.3670 C   0  0  0  0  0  0  0  0  0  0  0  0
  -37.8420  154.8720    6.9690 C   0  0  0  0  0  0  0  0  0  0  0  0
  -41.7107  158.7179    3.2592 H   0  0  0  0  0  0  0  0  0  0  0  0
  -42.4612  159.3606    1.7590 H   0  0  0  0  0  0  0  0  0  0  0  0
  -41.7081  157.7298    1.7590 H   0  0  0  0  0  0  0  0  0  0  0  0
  -40.5046  160.2633    1.1516 H   0  0  0  0  0  0  0  0  0  0  0  0
  -39.7646  159.5998    2.6888 H   0  0  0  0  0  0  0  0  0  0  0  0
  -39.9278  159.5731   -0.7381 H   0  0  0  0  0  0  0  0  0  0  0  0
  -38.2170  159.7385   -0.1346 H   0  0  0  0  0  0  0  0  0  0  0  0
  -38.1862  157.1316   -0.7830 H   0  0  0  0  0  0  0  0  0  0  0  0
  -39.4271  157.6940   -1.9537 H   0  0  0  0  0  0  0  0  0  0  0  0
  -37.7910  158.4354   -1.9537 H   0  0  0  0  0  0  0  0  0  0  0  0
  -38.1053  156.9330    1.4765 H   0  0  0  0  0  0  0  0  0  0  0  0
  -37.4364  158.6618    1.4168 H   0  0  0  0  0  0  0  0  0  0  0  0
  -37.9006  159.0870    3.5606 H   0  0  0  0  0  0  0  0  0  0  0  0
  -39.3537  157.9976    3.5770 H   0  0  0  0  0  0  0  0  0  0  0  0
  -37.3840  156.1910    3.4350 H   0  0  0  0  0  0  0  0  0  0  0  0
  -33.0846  157.3172    5.2399 H   0  0  0  0  0  0  0  0  0  0  0  0
  -33.1122  156.1201    3.9010 H   0  0  0  0  0  0  0  0  0  0  0  0
  -34.2689  157.4943    3.9010 H   0  0  0  0  0  0  0  0  0  0  0  0
  -33.4010  154.3790    5.8210 H   0  0  0  0  0  0  0  0  0  0  0  0
  -34.6084  152.9468    8.0724 H   0  0  0  0  0  0  0  0  0  0  0  0
  -37.7880  149.4830    5.5660 H   0  0  0  0  0  0  0  0  0  0  0  0
  -37.1103  147.4806    7.2929 H   0  0  0  0  0  0  0  0  0  0  0  0
  -35.6860  146.9910    9.3088 H   0  0  0  0  0  0  0  0  0  0  0  0
  -34.2416  151.0871    9.3426 H   0  0  0  0  0  0  0  0  0  0  0  0
  -37.7604  154.8826    8.0659 H   0  0  0  0  0  0  0  0  0  0  0  0
  -38.4976  155.6926    6.6422 H   0  0  0  0  0  0  0  0  0  0  0  0
  -38.2664  153.9112    6.6422 H   0  0  0  0  0  0  0  0  0  0  0  0
  1  2  1  0
  2  3  1  0
  3  4  1  0
  4  5  1  0
  3  6  1  0
  6  7  1  0
  7  8  1  0
  8  9  1  0
  9 10  2  0
  9 11  1  0
 11 12  2  0
 12 13  1  0
 12 14  1  0
 14 15  1  0
 15 16  1  0
 16 17  2  0
 17 18  1  0
 18 19  2  0
 18 20  1  0
 20 21  1  0
 21 22  1  0
 22 23  2  0
 23 24  1  0
 24 25  1  0
 24 26  2  0
 26 27  1  0
 15 28  2  0
 28 29  1  0
 28 11  1  0
 27 17  1  0
 27 21  2  0
  1 30  1  0
  1 31  1  0
  1 32  1  0
  2 33  1  0
  2 34  1  0
  4 35  1  0
  4 36  1  0
  5 37  1  0
  5 38  1  0
  5 39  1  0
  6 40  1  0
  6 41  1  0
  7 42  1  0
  7 43  1  0
  8 44  1  0
 13 45  1  0
 13 46  1  0
 13 47  1  0
 14 48  1  0
 16 49  1  0
 20 50  1  0
 22 51  1  0
 23 52  1  0
 26 53  1  0
 29 54  1  0
 29 55  1  0
 29 56  1  0
M  END
>  <meeko>  (7) 
{"is_sidechain": false}

>  <vina_affinity_kcal_mol>  (7) 
-8.504

>  <pose_rank>  (7) 
7

$$$$

     RDKit          3D

 56 58  0  0  0  0  0  0  0  0999 V2000
  -37.8390  157.8670    2.4870 C   0  0  0  0  0  0  0  0  0  0  0  0
  -38.3570  158.3690    1.1420 C   0  0  0  0  0  0  0  0  0  0  0  0
  -39.7560  158.8300    1.1740 N   0  0  0  0  0  0  0  0  0  0  0  0
  -40.3870  158.5900    2.4820 C   0  0  0  0  0  0  0  0  0  0  0  0
  -41.9050  158.7370    2.4430 C   0  0  0  0  0  0  0  0  0  0  0  0
  -39.9220  160.2360    0.7470 C   0  0  0  0  0  0  0  0  0  0  0  0
  -40.9900  160.5190   -0.3300 C   0  0  0  0  0  0  0  0  0  0  0  0
  -40.4910  161.3870   -1.3780 N   0  0  0  0  0  0  0  0  0  0  0  0
  -39.4590  161.0050   -2.2050 C   0  0  0  0  0  0  0  0  0  0  0  0
  -38.8980  159.9190   -2.1110 O   0  0  0  0  0  0  0  0  0  0  0  0
  -39.0570  162.0320   -3.1690 C   0  0  0  0  0  0  0  0  0  0  0  0
  -38.6130  163.2960   -2.8140 C   0  0  0  0  0  0  0  0  0  0  0  0
  -38.4230  163.9160   -1.4760 C   0  0  0  0  0  0  0  0  0  0  0  0
  -38.3510  163.9940   -3.9640 N   0  0  0  0  0  0  0  0  0  0  0  0
  -38.5890  163.2200   -5.0720 C   0  0  0  0  0  0  0  0  0  0  0  0
  -38.3950  163.7060   -6.3980 C   0  0  0  0  0  0  0  0  0  0  0  0
  -37.6090  163.2360   -7.3810 C   0  0  0  0  0  0  0  0  0  0  0  0
  -36.6700  162.0520   -7.4260 C   0  0  0  0  0  0  0  0  0  0  0  0
  -36.4230  161.2500   -6.5450 O   0  0  0  0  0  0  0  0  0  0  0  0
  -36.1280  162.0550   -8.6990 N   0  0  0  0  0  0  0  0  0  0  0  0
  -36.6190  163.1080   -9.4590 C   0  0  0  0  0  0  0  0  0  0  0  0
  -36.2890  163.4040  -10.7680 C   0  0  0  0  0  0  0  0  0  0  0  0
  -36.9030  164.5160  -11.3450 C   0  0  0  0  0  0  0  0  0  0  0  0
  -37.8150  165.2820  -10.6040 C   0  0  0  0  0  0  0  0  0  0  0  0
  -38.3900  166.3460  -11.1830 F   0  0  0  0  0  0  0  0  0  0  0  0
  -38.1390  164.9720   -9.2830 C   0  0  0  0  0  0  0  0  0  0  0  0
  -37.5280  163.8680   -8.7130 C   0  0  0  0  0  0  0  0  0  0  0  0
  -39.0000  161.9710   -4.6100 C   0  0  0  0  0  0  0  0  0  0  0  0
  -39.2980  160.7760   -5.4540 C   0  0  0  0  0  0  0  0  0  0  0  0
  -38.3709  158.3824    3.3003 H   0  0  0  0  0  0  0  0  0  0  0  0
  -38.0114  156.7834    2.5651 H   0  0  0  0  0  0  0  0  0  0  0  0
  -36.7613  158.0733    2.5651 H   0  0  0  0  0  0  0  0  0  0  0  0
  -37.7234  159.2080    0.8184 H   0  0  0  0  0  0  0  0  0  0  0  0
  -38.3180  157.5170    0.4473 H   0  0  0  0  0  0  0  0  0  0  0  0
  -40.1413  157.5687    2.8085 H   0  0  0  0  0  0  0  0  0  0  0  0
  -39.9992  159.3465    3.1801 H   0  0  0  0  0  0  0  0  0  0  0  0
  -42.2962  158.7749    3.4704 H   0  0  0  0  0  0  0  0  0  0  0  0
  -42.1701  159.6650    1.9153 H   0  0  0  0  0  0  0  0  0  0  0  0
  -42.3432  157.8771    1.9153 H   0  0  0  0  0  0  0  0  0  0  0  0
  -40.1851  160.8247    1.6382 H   0  0  0  0  0  0  0  0  0  0  0  0
  -38.9645  160.5074    0.2784 H   0  0  0  0  0  0  0  0  0  0  0  0
  -41.3027  159.5646   -0.7788 H   0  0  0  0  0  0  0  0  0  0  0  0
  -41.8355  161.0272    0.1567 H   0  0  0  0  0  0  0  0  0  0  0  0
  -40.7890  162.3520   -1.4040 H   0  0  0  0  0  0  0  0  0  0  0  0
  -38.6496  163.1766   -0.6937 H   0  0  0  0  0  0  0  0  0  0  0  0
  -37.3807  164.2519   -1.3722 H   0  0  0  0  0  0  0  0  0  0  0  0
  -39.0981  164.7782   -1.3722 H   0  0  0  0  0  0  0  0  0  0  0  0
  -38.0200  164.9550   -3.9790 H   0  0  0  0  0  0  0  0  0  0  0  0
  -38.9778  164.6026   -6.6557 H   0  0  0  0  0  0  0  0  0  0  0  0
  -35.4610  161.3630   -9.0070 H   0  0  0  0  0  0  0  0  0  0  0  0
  -35.5722  162.7886  -11.3314 H   0  0  0  0  0  0  0  0  0  0  0  0
  -36.6712  164.7929  -12.3841 H   0  0  0  0  0  0  0  0  0  0  0  0
  -38.8549  165.5833   -8.7141 H   0  0  0  0  0  0  0  0  0  0  0  0
  -39.5130  159.9137   -4.8058 H   0  0  0  0  0  0  0  0  0  0  0  0
  -40.1717  160.9843   -6.0890 H   0  0  0  0  0  0  0  0  0  0  0  0
  -38.4288  160.5496   -6.0890 H   0  0  0  0  0  0  0  0  0  0  0  0
  1  2  1  0
  2  3  1  0
  3  4  1  0
  4  5  1  0
  3  6  1  0
  6  7  1  0
  7  8  1  0
  8  9  1  0
  9 10  2  0
  9 11  1  0
 11 12  2  0
 12 13  1  0
 12 14  1  0
 14 15  1  0
 15 16  1  0
 16 17  2  0
 17 18  1  0
 18 19  2  0
 18 20  1  0
 20 21  1  0
 21 22  1  0
 22 23  2  0
 23 24  1  0
 24 25  1  0
 24 26  2  0
 26 27  1  0
 15 28  2  0
 28 29  1  0
 28 11  1  0
 27 17  1  0
 27 21  2  0
  1 30  1  0
  1 31  1  0
  1 32  1  0
  2 33  1  0
  2 34  1  0
  4 35  1  0
  4 36  1  0
  5 37  1  0
  5 38  1  0
  5 39  1  0
  6 40  1  0
  6 41  1  0
  7 42  1  0
  7 43  1  0
  8 44  1  0
 13 45  1  0
 13 46  1  0
 13 47  1  0
 14 48  1  0
 16 49  1  0
 20 50  1  0
 22 51  1  0
 23 52  1  0
 26 53  1  0
 29 54  1  0
 29 55  1  0
 29 56  1  0
M  END
>  <meeko>  (8) 
{"is_sidechain": false}

>  <vina_affinity_kcal_mol>  (8) 
-8.48

>  <pose_rank>  (8) 
8

$$$$

     RDKit          3D

 56 58  0  0  0  0  0  0  0  0999 V2000
  -38.6460  159.0120   -2.3650 C   0  0  0  0  0  0  0  0  0  0  0  0
  -39.2450  158.3370   -1.1340 C   0  0  0  0  0  0  0  0  0  0  0  0
  -38.8480  158.9570    0.1420 N   0  0  0  0  0  0  0  0  0  0  0  0
  -39.7780  160.0220    0.5520 C   0  0  0  0  0  0  0  0  0  0  0  0
  -41.2080  159.7720    0.0830 C   0  0  0  0  0  0  0  0  0  0  0  0
  -38.6370  157.9790    1.2300 C   0  0  0  0  0  0  0  0  0  0  0  0
  -38.8890  158.4700    2.6710 C   0  0  0  0  0  0  0  0  0  0  0  0
  -38.5330  157.4710    3.6580 N   0  0  0  0  0  0  0  0  0  0  0  0
  -37.2340  157.3000    4.0800 C   0  0  0  0  0  0  0  0  0  0  0  0
  -36.3010  157.9720    3.6540 O   0  0  0  0  0  0  0  0  0  0  0  0
  -37.0570  156.2090    5.0410 C   0  0  0  0  0  0  0  0  0  0  0  0
  -36.6260  156.3880    6.3460 C   0  0  0  0  0  0  0  0  0  0  0  0
  -36.2630  157.6270    7.0850 C   0  0  0  0  0  0  0  0  0  0  0  0
  -36.5530  155.1580    6.9450 N   0  0  0  0  0  0  0  0  0  0  0  0
  -36.9430  154.1680    6.0770 C   0  0  0  0  0  0  0  0  0  0  0  0
  -36.9600  152.7910    6.4480 C   0  0  0  0  0  0  0  0  0  0  0  0
  -35.9960  151.8610    6.3470 C   0  0  0  0  0  0  0  0  0  0  0  0
  -34.5850  151.9420    5.8110 C   0  0  0  0  0  0  0  0  0  0  0  0
  -34.0090  152.9050    5.3420 O   0  0  0  0  0  0  0  0  0  0  0  0
  -34.0580  150.6710    5.9590 N   0  0  0  0  0  0  0  0  0  0  0  0
  -34.9780  149.8000    6.5260 C   0  0  0  0  0  0  0  0  0  0  0  0
  -34.7800  148.4620    6.8120 C   0  0  0  0  0  0  0  0  0  0  0  0
  -35.8460  147.7680    7.3840 C   0  0  0  0  0  0  0  0  0  0  0  0
  -37.0570  148.4260    7.6490 C   0  0  0  0  0  0  0  0  0  0  0  0
  -38.0640  147.7340    8.1990 F   0  0  0  0  0  0  0  0  0  0  0  0
  -37.2420  149.7770    7.3550 C   0  0  0  0  0  0  0  0  0  0  0  0
  -36.1830  150.4630    6.7870 C   0  0  0  0  0  0  0  0  0  0  0  0
  -37.2990  154.7950    4.8850 C   0  0  0  0  0  0  0  0  0  0  0  0
  -37.8600  154.1250    3.6730 C   0  0  0  0  0  0  0  0  0  0  0  0
  -37.9469  159.7997   -2.0475 H   0  0  0  0  0  0  0  0  0  0  0  0
  -38.1079  158.2652   -2.9673 H   0  0  0  0  0  0  0  0  0  0  0  0
  -39.4515  159.4575   -2.9673 H   0  0  0  0  0  0  0  0  0  0  0  0
  -40.3412  158.3817   -1.2140 H   0  0  0  0  0  0  0  0  0  0  0  0
  -38.8631  157.3055   -1.1191 H   0  0  0  0  0  0  0  0  0  0  0  0
  -39.7748  160.0877    1.6500 H   0  0  0  0  0  0  0  0  0  0  0  0
  -39.4357  160.9577    0.0859 H   0  0  0  0  0  0  0  0  0  0  0  0
  -41.8658  159.6570    0.9571 H   0  0  0  0  0  0  0  0  0  0  0  0
  -41.5493  160.6241   -0.5232 H   0  0  0  0  0  0  0  0  0  0  0  0
  -41.2400  158.8546   -0.5232 H   0  0  0  0  0  0  0  0  0  0  0  0
  -39.3098  157.1283    1.0467 H   0  0  0  0  0  0  0  0  0  0  0  0
  -37.5644  157.7377    1.1936 H   0  0  0  0  0  0  0  0  0  0  0  0
  -38.2871  159.3736    2.8480 H   0  0  0  0  0  0  0  0  0  0  0  0
  -39.9639  158.6795    2.7740 H   0  0  0  0  0  0  0  0  0  0  0  0
  -39.2150  156.7750    3.9250 H   0  0  0  0  0  0  0  0  0  0  0  0
  -36.3184  157.4380    8.1672 H   0  0  0  0  0  0  0  0  0  0  0  0
  -35.2392  157.9271    6.8171 H   0  0  0  0  0  0  0  0  0  0  0  0
  -36.9630  158.4321    6.8171 H   0  0  0  0  0  0  0  0  0  0  0  0
  -36.2520  155.0130    7.9040 H   0  0  0  0  0  0  0  0  0  0  0  0
  -37.9062  152.4367    6.8829 H   0  0  0  0  0  0  0  0  0  0  0  0
  -33.1160  150.4380    5.6800 H   0  0  0  0  0  0  0  0  0  0  0  0
  -33.8221  147.9657    6.5975 H   0  0  0  0  0  0  0  0  0  0  0  0
  -35.7372  146.7010    7.6283 H   0  0  0  0  0  0  0  0  0  0  0  0
  -38.1970  150.2798    7.5674 H   0  0  0  0  0  0  0  0  0  0  0  0
  -38.5377  153.3156    3.9821 H   0  0  0  0  0  0  0  0  0  0  0  0
  -38.4163  154.8597    3.0723 H   0  0  0  0  0  0  0  0  0  0  0  0
  -37.0390  153.7065    3.0723 H   0  0  0  0  0  0  0  0  0  0  0  0
  1  2  1  0
  2  3  1  0
  3  4  1  0
  4  5  1  0
  3  6  1  0
  6  7  1  0
  7  8  1  0
  8  9  1  0
  9 10  2  0
  9 11  1  0
 11 12  2  0
 12 13  1  0
 12 14  1  0
 14 15  1  0
 15 16  1  0
 16 17  2  0
 17 18  1  0
 18 19  2  0
 18 20  1  0
 20 21  1  0
 21 22  1  0
 22 23  2  0
 23 24  1  0
 24 25  1  0
 24 26  2  0
 26 27  1  0
 15 28  2  0
 28 29  1  0
 28 11  1  0
 27 17  1  0
 27 21  2  0
  1 30  1  0
  1 31  1  0
  1 32  1  0
  2 33  1  0
  2 34  1  0
  4 35  1  0
  4 36  1  0
  5 37  1  0
  5 38  1  0
  5 39  1  0
  6 40  1  0
  6 41  1  0
  7 42  1  0
  7 43  1  0
  8 44  1  0
 13 45  1  0
 13 46  1  0
 13 47  1  0
 14 48  1  0
 16 49  1  0
 20 50  1  0
 22 51  1  0
 23 52  1  0
 26 53  1  0
 29 54  1  0
 29 55  1  0
 29 56  1  0
M  END
>  <meeko>  (9) 
{"is_sidechain": false}

>  <vina_affinity_kcal_mol>  (9) 
-7.975

>  <pose_rank>  (9) 
9

$$$$

     RDKit          3D

 56 58  0  0  0  0  0  0  0  0999 V2000
  -38.1460  163.7520   10.4340 C   0  0  0  0  0  0  0  0  0  0  0  0
  -37.8220  162.2610   10.4240 C   0  0  0  0  0  0  0  0  0  0  0  0
  -37.1380  161.8050    9.2020 N   0  0  0  0  0  0  0  0  0  0  0  0
  -35.6880  162.0590    9.2540 C   0  0  0  0  0  0  0  0  0  0  0  0
  -34.9130  160.9290    9.9260 C   0  0  0  0  0  0  0  0  0  0  0  0
  -37.4240  160.3960    8.8570 C   0  0  0  0  0  0  0  0  0  0  0  0
  -37.1020  159.9490    7.4170 C   0  0  0  0  0  0  0  0  0  0  0  0
  -36.4780  158.6410    7.3780 N   0  0  0  0  0  0  0  0  0  0  0  0
  -36.3530  157.9330    6.2040 C   0  0  0  0  0  0  0  0  0  0  0  0
  -36.7550  158.3550    5.1260 O   0  0  0  0  0  0  0  0  0  0  0  0
  -35.7450  156.6110    6.3680 C   0  0  0  0  0  0  0  0  0  0  0  0
  -34.4280  156.3180    6.0470 C   0  0  0  0  0  0  0  0  0  0  0  0
  -33.3480  157.1840    5.5060 C   0  0  0  0  0  0  0  0  0  0  0  0
  -34.2120  154.9890    6.3030 N   0  0  0  0  0  0  0  0  0  0  0  0
  -35.3440  154.3960    6.8030 C   0  0  0  0  0  0  0  0  0  0  0  0
  -35.3910  153.0150    7.1540 C   0  0  0  0  0  0  0  0  0  0  0  0
  -36.1300  152.0200    6.6360 C   0  0  0  0  0  0  0  0  0  0  0  0
  -37.1550  152.0150    5.5240 C   0  0  0  0  0  0  0  0  0  0  0  0
  -37.5360  152.9470    4.8430 O   0  0  0  0  0  0  0  0  0  0  0  0
  -37.5900  150.7040    5.4270 N   0  0  0  0  0  0  0  0  0  0  0  0
  -36.9560  149.8870    6.3520 C   0  0  0  0  0  0  0  0  0  0  0  0
  -37.1550  148.5300    6.5270 C   0  0  0  0  0  0  0  0  0  0  0  0
  -36.4080  147.8980    7.5210 C   0  0  0  0  0  0  0  0  0  0  0  0
  -35.5000  148.6350    8.2970 C   0  0  0  0  0  0  0  0  0  0  0  0
  -34.7970  148.0020    9.2470 F   0  0  0  0  0  0  0  0  0  0  0  0
  -35.3100  150.0040    8.1110 C   0  0  0  0  0  0  0  0  0  0  0  0
  -36.0520  150.6280    7.1230 C   0  0  0  0  0  0  0  0  0  0  0  0
  -36.3160  155.3920    6.8900 C   0  0  0  0  0  0  0  0  0  0  0  0
  -37.6900  155.2330    7.4520 C   0  0  0  0  0  0  0  0  0  0  0  0
  -38.2224  164.1036   11.4735 H   0  0  0  0  0  0  0  0  0  0  0  0
  -37.3469  164.3043    9.9179 H   0  0  0  0  0  0  0  0  0  0  0  0
  -39.1022  163.9229    9.9179 H   0  0  0  0  0  0  0  0  0  0  0  0
  -37.1739  162.0421   11.2854 H   0  0  0  0  0  0  0  0  0  0  0  0
  -38.7822  161.7263   10.4697 H   0  0  0  0  0  0  0  0  0  0  0  0
  -35.3150  162.1781    8.2260 H   0  0  0  0  0  0  0  0  0  0  0  0
  -35.5325  162.9687    9.8526 H   0  0  0  0  0  0  0  0  0  0  0  0
  -34.9851  161.0341   11.0186 H   0  0  0  0  0  0  0  0  0  0  0  0
  -35.3383  159.9612    9.6219 H   0  0  0  0  0  0  0  0  0  0  0  0
  -33.8570  160.9772    9.6219 H   0  0  0  0  0  0  0  0  0  0  0  0
  -36.8395  159.7619    9.5399 H   0  0  0  0  0  0  0  0  0  0  0  0
  -38.5153  160.2948    8.9504 H   0  0  0  0  0  0  0  0  0  0  0  0
  -38.0374  159.9130    6.8394 H   0  0  0  0  0  0  0  0  0  0  0  0
  -36.3951  160.6742    6.9876 H   0  0  0  0  0  0  0  0  0  0  0  0
  -36.2780  158.1640    8.2450 H   0  0  0  0  0  0  0  0  0  0  0  0
  -32.7871  157.6338    6.3385 H   0  0  0  0  0  0  0  0  0  0  0  0
  -32.6670  156.5789    4.8896 H   0  0  0  0  0  0  0  0  0  0  0  0
  -33.7907  157.9803    4.8896 H   0  0  0  0  0  0  0  0  0  0  0  0
  -33.3260  154.5200    6.1420 H   0  0  0  0  0  0  0  0  0  0  0  0
  -34.7199  152.7192    7.9738 H   0  0  0  0  0  0  0  0  0  0  0  0
  -38.2830  150.4120    4.7550 H   0  0  0  0  0  0  0  0  0  0  0  0
  -37.8728  147.9719    5.9079 H   0  0  0  0  0  0  0  0  0  0  0  0
  -36.5309  146.8192    7.6972 H   0  0  0  0  0  0  0  0  0  0  0  0
  -34.5953  150.5684    8.7280 H   0  0  0  0  0  0  0  0  0  0  0  0
  -37.6396  155.2388    8.5508 H   0  0  0  0  0  0  0  0  0  0  0  0
  -38.3246  156.0637    7.1096 H   0  0  0  0  0  0  0  0  0  0  0  0
  -38.1181  154.2793    7.1096 H   0  0  0  0  0  0  0  0  0  0  0  0
  1  2  1  0
  2  3  1  0
  3  4  1  0
  4  5  1  0
  3  6  1  0
  6  7  1  0
  7  8  1  0
  8  9  1  0
  9 10  2  0
  9 11  1  0
 11 12  2  0
 12 13  1  0
 12 14  1  0
 14 15  1  0
 15 16  1  0
 16 17  2  0
 17 18  1  0
 18 19  2  0
 18 20  1  0
 20 21  1  0
 21 22  1  0
 22 23  2  0
 23 24  1  0
 24 25  1  0
 24 26  2  0
 26 27  1  0
 15 28  2  0
 28 29  1  0
 28 11  1  0
 27 17  1  0
 27 21  2  0
  1 30  1  0
  1 31  1  0
  1 32  1  0
  2 33  1  0
  2 34  1  0
  4 35  1  0
  4 36  1  0
  5 37  1  0
  5 38  1  0
  5 39  1  0
  6 40  1  0
  6 41  1  0
  7 42  1  0
  7 43  1  0
  8 44  1  0
 13 45  1  0
 13 46  1  0
 13 47  1  0
 14 48  1  0
 16 49  1  0
 20 50  1  0
 22 51  1  0
 23 52  1  0
 26 53  1  0
 29 54  1  0
 29 55  1  0
 29 56  1  0
M  END
>  <meeko>  (10) 
{"is_sidechain": false}

>  <vina_affinity_kcal_mol>  (10) 
-7.912

>  <pose_rank>  (10) 
10

$$$$
