
     RDKit          3D

 55 59  0  0  0  0  0  0  0  0999 V2000
   -4.4237    1.9536    2.0030 C   0  0  0  0  0  0  0  0  0  0  0  0
   -5.1262    1.4173    0.7399 C   0  0  0  0  0  0  0  0  0  0  0  0
   -3.7082    1.1841    0.1227 C   0  0  0  0  0  0  0  0  0  0  0  0
   -3.1836    1.1385    1.5891 C   0  0  0  0  0  0  0  0  0  0  0  0
   -3.2599    2.3360   -0.7868 C   0  0  0  0  0  0  0  0  0  0  0  0
   -1.8405    2.3995   -0.8926 O   0  0  0  0  0  0  0  0  0  0  0  0
   -3.6590   -0.1063   -0.5389 N   0  0  0  0  0  0  0  0  0  0  0  0
   -2.4787   -0.8444   -0.7990 C   0  0  0  0  0  0  0  0  0  0  0  0
   -1.2732   -0.2934   -0.5491 N   0  0  0  0  0  0  0  0  0  0  0  0
   -0.1474   -1.0054   -0.7936 C   0  0  0  0  0  0  0  0  0  0  0  0
   -0.1779   -2.2471   -1.3148 N   0  0  0  0  0  0  0  0  0  0  0  0
   -1.3860   -2.7609   -1.5789 C   0  0  0  0  0  0  0  0  0  0  0  0
   -2.5624   -2.0916   -1.3609 C   0  0  0  0  0  0  0  0  0  0  0  0
   -4.0034   -3.0259   -1.8080 S   0  0  0  0  0  4  0  0  0  0  0  0
   -4.8565   -3.0234   -0.5729 O   0  0  0  0  0  0  0  0  0  0  0  0
   -2.9818   -4.5551   -1.8094 C   0  0  0  0  0  0  0  0  0  0  0  0
   -1.5604   -4.1284   -2.1790 C   0  0  0  0  0  0  0  0  0  0  0  0
    1.0937   -0.4138   -0.5234 N   0  0  0  0  0  0  0  0  0  0  0  0
    1.0525    0.5610    0.5716 C   0  0  0  0  0  0  0  0  0  0  0  0
    2.3771    1.3134    0.6696 C   0  0  0  0  0  0  0  0  0  0  0  0
    3.5488    0.3356    0.7774 C   0  0  0  0  0  0  0  0  0  0  0  0
    3.5419   -0.6198   -0.4178 C   0  0  0  0  0  0  0  0  0  0  0  0
    2.2110   -1.3615   -0.5076 C   0  0  0  0  0  0  0  0  0  0  0  0
    4.8643    1.0678    0.8911 C   0  0  0  0  0  0  0  0  0  0  0  0
    5.5648    0.9059    2.0326 N   0  0  0  0  0  0  0  0  0  0  0  0
    6.7375    1.5740    2.1220 C   0  0  0  0  0  0  0  0  0  0  0  0
    7.2302    2.3856    1.1278 C   0  0  0  0  0  0  0  0  0  0  0  0
    6.4436    2.4838    0.0052 C   0  0  0  0  0  0  0  0  0  0  0  0
    5.2639    1.8396   -0.1403 N   0  0  0  0  0  0  0  0  0  0  0  0
    8.7177    3.2136    1.2776 Cl  0  0  0  0  0  0  0  0  0  0  0  0
   -4.2633    3.0376    1.9952 H   0  0  0  0  0  0  0  0  0  0  0  0
   -4.8800    1.6713    2.9552 H   0  0  0  0  0  0  0  0  0  0  0  0
   -5.7136    0.5112    0.9341 H   0  0  0  0  0  0  0  0  0  0  0  0
   -5.7702    2.1366    0.2250 H   0  0  0  0  0  0  0  0  0  0  0  0
   -2.2238    1.6283    1.7765 H   0  0  0  0  0  0  0  0  0  0  0  0
   -3.1571    0.1391    2.0409 H   0  0  0  0  0  0  0  0  0  0  0  0
   -3.5884    3.3042   -0.3950 H   0  0  0  0  0  0  0  0  0  0  0  0
   -3.6797    2.2318   -1.7933 H   0  0  0  0  0  0  0  0  0  0  0  0
   -1.5285    1.4724   -0.9635 H   0  0  0  0  0  0  0  0  0  0  0  0
   -4.3485   -0.7627   -0.1581 H   0  0  0  0  0  0  0  0  0  0  0  0
   -3.3994   -5.2794   -2.5131 H   0  0  0  0  0  0  0  0  0  0  0  0
   -3.0155   -4.9739   -0.7974 H   0  0  0  0  0  0  0  0  0  0  0  0
   -0.8215   -4.8383   -1.7957 H   0  0  0  0  0  0  0  0  0  0  0  0
   -1.4487   -4.0540   -3.2667 H   0  0  0  0  0  0  0  0  0  0  0  0
    0.8444    0.0511    1.5216 H   0  0  0  0  0  0  0  0  0  0  0  0
    0.2712    1.3130    0.4198 H   0  0  0  0  0  0  0  0  0  0  0  0
    2.4946    1.9528   -0.2156 H   0  0  0  0  0  0  0  0  0  0  0  0
    2.3549    1.9817    1.5393 H   0  0  0  0  0  0  0  0  0  0  0  0
    3.4166   -0.2594    1.6920 H   0  0  0  0  0  0  0  0  0  0  0  0
    3.7081   -0.0649   -1.3509 H   0  0  0  0  0  0  0  0  0  0  0  0
    4.3607   -1.3450   -0.3332 H   0  0  0  0  0  0  0  0  0  0  0  0
    2.2395   -1.9603   -1.4268 H   0  0  0  0  0  0  0  0  0  0  0  0
    2.1134   -2.0502    0.3421 H   0  0  0  0  0  0  0  0  0  0  0  0
    7.2794    1.4262    3.0514 H   0  0  0  0  0  0  0  0  0  0  0  0
    6.7373    3.0985   -0.8405 H   0  0  0  0  0  0  0  0  0  0  0  0
  1  2  1  0
  2  3  1  0
  3  4  1  0
  3  5  1  0
  5  6  1  0
  3  7  1  0
  7  8  1  0
  8  9  1  0
  9 10  2  0
 10 11  1  0
 11 12  2  0
 12 13  1  0
 13 14  1  0
 14 15  2  0
 14 16  1  1
 16 17  1  0
 10 18  1  0
 18 19  1  0
 19 20  1  0
 20 21  1  0
 21 22  1  0
 22 23  1  0
 21 24  1  0
 24 25  2  0
 25 26  1  0
 26 27  2  0
 27 28  1  0
 28 29  2  0
 27 30  1  0
  4  1  1  0
 13  8  2  0
 17 12  1  0
 23 18  1  0
 29 24  1  0
  1 31  1  0
  1 32  1  0
  2 33  1  0
  2 34  1  0
  4 35  1  0
  4 36  1  0
  5 37  1  0
  5 38  1  0
  6 39  1  0
  7 40  1  0
 16 41  1  0
 16 42  1  0
 17 43  1  0
 17 44  1  0
 19 45  1  0
 19 46  1  0
 20 47  1  0
 20 48  1  0
 21 49  1  0
 22 50  1  0
 22 51  1  0
 23 52  1  0
 23 53  1  0
 26 54  1  0
 28 55  1  0
M  END
$$$$
