
     RDKit          3D

 55 59  0  0  0  0  0  0  0  0999 V2000
   -7.1330    5.2260  -18.5810 O   0  0  0  0  0  0  0  0  0  0  0  0
   -8.6250    5.3240  -18.7170 S   0  0  0  0  0  4  0  0  0  0  0  0
   -9.1760    6.9180  -17.9860 C   0  0  0  0  0  0  0  0  0  0  0  0
  -10.3950    6.6010  -17.1170 C   0  0  0  0  0  0  0  0  0  0  0  0
  -10.1360    5.2320  -16.5530 C   0  0  0  0  0  0  0  0  0  0  0  0
  -10.7380    4.7940  -15.4400 N   0  0  0  0  0  0  0  0  0  0  0  0
  -10.4400    3.5430  -15.0400 C   0  0  0  0  0  0  0  0  0  0  0  0
  -11.0620    3.0310  -13.8940 N   0  0  0  0  0  0  0  0  0  0  0  0
  -12.5210    3.1870  -13.8990 C   0  0  0  0  0  0  0  0  0  0  0  0
  -13.1050    2.8050  -12.5430 C   0  0  0  0  0  0  0  0  0  0  0  0
  -12.6520    1.4030  -12.1320 C   0  0  0  0  0  0  0  0  0  0  0  0
  -13.2370    1.0070  -10.7980 C   0  0  0  0  0  0  0  0  0  0  0  0
  -14.4980    1.4070  -10.5330 N   0  0  0  0  0  0  0  0  0  0  0  0
  -15.0050    1.0490   -9.3310 C   0  0  0  0  0  0  0  0  0  0  0  0
  -14.3100    0.3170   -8.3980 C   0  0  0  0  0  0  0  0  0  0  0  0
  -14.9860   -0.1170   -6.8890 Cl  0  0  0  0  0  0  0  0  0  0  0  0
  -13.0360   -0.0440   -8.7630 C   0  0  0  0  0  0  0  0  0  0  0  0
  -12.4770    0.2840   -9.9500 N   0  0  0  0  0  0  0  0  0  0  0  0
  -11.1230    1.3340  -12.1160 C   0  0  0  0  0  0  0  0  0  0  0  0
  -10.5500    1.7230  -13.4760 C   0  0  0  0  0  0  0  0  0  0  0  0
   -9.5810    2.7490  -15.7230 N   0  0  0  0  0  0  0  0  0  0  0  0
   -8.9670    3.2230  -16.8270 C   0  0  0  0  0  0  0  0  0  0  0  0
   -8.0640    2.3990  -17.5400 N   0  0  0  0  0  0  0  0  0  0  0  0
   -6.7890    1.9240  -17.0350 C   0  0  0  0  0  0  0  0  0  0  0  0
   -6.0560    2.9750  -16.1910 C   0  0  0  0  0  0  0  0  0  0  0  0
   -5.1880    3.7750  -16.9870 O   0  0  0  0  0  0  0  0  0  0  0  0
   -6.9830    0.5680  -16.2790 C   0  0  0  0  0  0  0  0  0  0  0  0
   -5.7180    0.0550  -16.9950 C   0  0  0  0  0  0  0  0  0  0  0  0
   -5.9810    1.1090  -18.0880 C   0  0  0  0  0  0  0  0  0  0  0  0
   -9.2630    4.4780  -17.2930 C   0  0  0  0  0  0  0  0  0  0  0  0
   -8.3735    7.3512  -17.3709 H   0  0  0  0  0  0  0  0  0  0  0  0
   -9.4259    7.6488  -18.7693 H   0  0  0  0  0  0  0  0  0  0  0  0
  -10.4931    7.3389  -16.3072 H   0  0  0  0  0  0  0  0  0  0  0  0
  -11.3303    6.6358  -17.6949 H   0  0  0  0  0  0  0  0  0  0  0  0
  -12.7720    4.2352  -14.1186 H   0  0  0  0  0  0  0  0  0  0  0  0
  -12.9463    2.5254  -14.6680 H   0  0  0  0  0  0  0  0  0  0  0  0
  -12.7664    3.5293  -11.7875 H   0  0  0  0  0  0  0  0  0  0  0  0
  -14.2025    2.8135  -12.6167 H   0  0  0  0  0  0  0  0  0  0  0  0
  -13.0256    0.6812  -12.8732 H   0  0  0  0  0  0  0  0  0  0  0  0
  -16.0310    1.3612   -9.0865 H   0  0  0  0  0  0  0  0  0  0  0  0
  -12.4379   -0.6318   -8.0512 H   0  0  0  0  0  0  0  0  0  0  0  0
  -10.7386    2.0251  -11.3514 H   0  0  0  0  0  0  0  0  0  0  0  0
  -10.8184    0.3022  -11.8865 H   0  0  0  0  0  0  0  0  0  0  0  0
   -9.4531    1.7689  -13.4069 H   0  0  0  0  0  0  0  0  0  0  0  0
  -10.8522    0.9692  -14.2180 H   0  0  0  0  0  0  0  0  0  0  0  0
   -7.9850    2.7850  -18.4880 H   0  0  0  0  0  0  0  0  0  0  0  0
   -6.7992    3.6266  -15.7083 H   0  0  0  0  0  0  0  0  0  0  0  0
   -5.4472    2.4495  -15.4405 H   0  0  0  0  0  0  0  0  0  0  0  0
   -4.2800    3.6080  -16.6560 H   0  0  0  0  0  0  0  0  0  0  0  0
   -6.8931    0.6373  -15.1849 H   0  0  0  0  0  0  0  0  0  0  0  0
   -7.9332    0.0155  -16.3225 H   0  0  0  0  0  0  0  0  0  0  0  0
   -4.7834    0.2013  -16.4337 H   0  0  0  0  0  0  0  0  0  0  0  0
   -5.5869   -1.0091  -17.2408 H   0  0  0  0  0  0  0  0  0  0  0  0
   -5.0781    1.6143  -18.4615 H   0  0  0  0  0  0  0  0  0  0  0  0
   -6.4194    0.8319  -19.0581 H   0  0  0  0  0  0  0  0  0  0  0  0
  1  2  2  0
  2  3  1  1
  3  4  1  0
  4  5  1  0
  5  6  2  0
  6  7  1  0
  7  8  1  0
  8  9  1  0
  9 10  1  0
 10 11  1  0
 11 12  1  0
 12 13  2  0
 13 14  1  0
 14 15  2  0
 15 16  1  0
 15 17  1  0
 17 18  2  0
 11 19  1  0
 19 20  1  0
  7 21  2  0
 21 22  1  0
 22 23  1  0
 23 24  1  0
 24 25  1  0
 25 26  1  0
 24 27  1  0
 27 28  1  0
 28 29  1  0
 22 30  2  0
 30  2  1  0
 30  5  1  0
 20  8  1  0
 29 24  1  0
 18 12  1  0
  3 31  1  0
  3 32  1  0
  4 33  1  0
  4 34  1  0
  9 35  1  0
  9 36  1  0
 10 37  1  0
 10 38  1  0
 11 39  1  0
 14 40  1  0
 17 41  1  0
 19 42  1  0
 19 43  1  0
 20 44  1  0
 20 45  1  0
 23 46  1  0
 25 47  1  0
 25 48  1  0
 26 49  1  0
 27 50  1  0
 27 51  1  0
 28 52  1  0
 28 53  1  0
 29 54  1  0
 29 55  1  0
M  END
>  <meeko>  (1) 
{"is_sidechain": false}

>  <vina_affinity_kcal_mol>  (1) 
-8.599

>  <pose_rank>  (1) 
1

$$$$

     RDKit          3D

 55 59  0  0  0  0  0  0  0  0999 V2000
   -7.1250    4.9120  -18.1520 O   0  0  0  0  0  0  0  0  0  0  0  0
   -8.6120    5.0060  -18.3440 S   0  0  0  0  0  4  0  0  0  0  0  0
   -9.1900    6.6100  -17.6570 C   0  0  0  0  0  0  0  0  0  0  0  0
  -10.4400    6.3030  -16.8290 C   0  0  0  0  0  0  0  0  0  0  0  0
  -10.2000    4.9430  -16.2360 C   0  0  0  0  0  0  0  0  0  0  0  0
  -10.8420    4.5210  -15.1390 N   0  0  0  0  0  0  0  0  0  0  0  0
  -10.5580    3.2760  -14.7100 C   0  0  0  0  0  0  0  0  0  0  0  0
  -11.2210    2.7800  -13.5810 N   0  0  0  0  0  0  0  0  0  0  0  0
  -12.6780    2.9450  -13.6360 C   0  0  0  0  0  0  0  0  0  0  0  0
  -13.3090    2.5800  -12.2960 C   0  0  0  0  0  0  0  0  0  0  0  0
  -12.8780    1.1800  -11.8560 C   0  0  0  0  0  0  0  0  0  0  0  0
  -13.5100    0.8010  -10.5380 C   0  0  0  0  0  0  0  0  0  0  0  0
  -12.8770   -0.1310   -9.7940 N   0  0  0  0  0  0  0  0  0  0  0  0
  -13.4590   -0.4640   -8.6200 C   0  0  0  0  0  0  0  0  0  0  0  0
  -14.6330    0.0900   -8.1670 C   0  0  0  0  0  0  0  0  0  0  0  0
  -15.3380   -0.3580   -6.6750 Cl  0  0  0  0  0  0  0  0  0  0  0  0
  -15.1990    1.0300   -8.9950 C   0  0  0  0  0  0  0  0  0  0  0  0
  -14.6620    1.4020  -10.1790 N   0  0  0  0  0  0  0  0  0  0  0  0
  -11.3510    1.1020  -11.7880 C   0  0  0  0  0  0  0  0  0  0  0  0
  -10.7310    1.4740  -13.1320 C   0  0  0  0  0  0  0  0  0  0  0  0
   -9.6740    2.4730  -15.3500 N   0  0  0  0  0  0  0  0  0  0  0  0
   -9.0200    2.9320  -16.4370 C   0  0  0  0  0  0  0  0  0  0  0  0
   -8.0910    2.0990  -17.1060 N   0  0  0  0  0  0  0  0  0  0  0  0
   -6.9000    1.5280  -16.5060 C   0  0  0  0  0  0  0  0  0  0  0  0
   -7.1590    0.1610  -15.8560 C   0  0  0  0  0  0  0  0  0  0  0  0
   -8.4450   -0.3470  -16.1980 O   0  0  0  0  0  0  0  0  0  0  0  0
   -5.7380    1.4890  -17.5510 C   0  0  0  0  0  0  0  0  0  0  0  0
   -4.7990    1.9980  -16.4400 C   0  0  0  0  0  0  0  0  0  0  0  0
   -6.0430    2.5750  -15.7350 C   0  0  0  0  0  0  0  0  0  0  0  0
   -9.3000    4.1800  -16.9320 C   0  0  0  0  0  0  0  0  0  0  0  0
   -8.4110    7.0530  -17.0191 H   0  0  0  0  0  0  0  0  0  0  0  0
   -9.4110    7.3297  -18.4590 H   0  0  0  0  0  0  0  0  0  0  0  0
  -10.5691    7.0524  -16.0342 H   0  0  0  0  0  0  0  0  0  0  0  0
  -11.3534    6.3275  -17.4415 H   0  0  0  0  0  0  0  0  0  0  0  0
  -12.9148    3.9925  -13.8740 H   0  0  0  0  0  0  0  0  0  0  0  0
  -13.0820    2.2785  -14.4123 H   0  0  0  0  0  0  0  0  0  0  0  0
  -12.9915    3.3102  -11.5371 H   0  0  0  0  0  0  0  0  0  0  0  0
  -14.4034    2.5936  -12.4063 H   0  0  0  0  0  0  0  0  0  0  0  0
  -13.2305    0.4529  -12.6023 H   0  0  0  0  0  0  0  0  0  0  0  0
  -12.9656   -1.2205   -7.9921 H   0  0  0  0  0  0  0  0  0  0  0  0
  -16.1390    1.5050   -8.6775 H   0  0  0  0  0  0  0  0  0  0  0  0
  -10.9879    1.7984  -11.0178 H   0  0  0  0  0  0  0  0  0  0  0  0
  -11.0605    0.0709  -11.5380 H   0  0  0  0  0  0  0  0  0  0  0  0
   -9.6368    1.5149  -13.0267 H   0  0  0  0  0  0  0  0  0  0  0  0
  -11.0130    0.7141  -13.8757 H   0  0  0  0  0  0  0  0  0  0  0  0
   -7.8970    2.5310  -18.0160 H   0  0  0  0  0  0  0  0  0  0  0  0
   -6.3919   -0.5487  -16.1995 H   0  0  0  0  0  0  0  0  0  0  0  0
   -7.1177    0.2860  -14.7639 H   0  0  0  0  0  0  0  0  0  0  0  0
   -8.9040   -0.5270  -15.3510 H   0  0  0  0  0  0  0  0  0  0  0  0
   -5.4966    0.4847  -17.9293 H   0  0  0  0  0  0  0  0  0  0  0  0
   -5.8171    2.0055  -18.5190 H   0  0  0  0  0  0  0  0  0  0  0  0
   -4.2817    1.2055  -15.8794 H   0  0  0  0  0  0  0  0  0  0  0  0
   -3.9237    2.6241  -16.6677 H   0  0  0  0  0  0  0  0  0  0  0  0
   -6.0465    2.4521  -14.6419 H   0  0  0  0  0  0  0  0  0  0  0  0
   -6.2778    3.6490  -15.7734 H   0  0  0  0  0  0  0  0  0  0  0  0
  1  2  2  0
  2  3  1  1
  3  4  1  0
  4  5  1  0
  5  6  2  0
  6  7  1  0
  7  8  1  0
  8  9  1  0
  9 10  1  0
 10 11  1  0
 11 12  1  0
 12 13  2  0
 13 14  1  0
 14 15  2  0
 15 16  1  0
 15 17  1  0
 17 18  2  0
 11 19  1  0
 19 20  1  0
  7 21  2  0
 21 22  1  0
 22 23  1  0
 23 24  1  0
 24 25  1  0
 25 26  1  0
 24 27  1  0
 27 28  1  0
 28 29  1  0
 22 30  2  0
 30  2  1  0
 30  5  1  0
 20  8  1  0
 29 24  1  0
 18 12  1  0
  3 31  1  0
  3 32  1  0
  4 33  1  0
  4 34  1  0
  9 35  1  0
  9 36  1  0
 10 37  1  0
 10 38  1  0
 11 39  1  0
 14 40  1  0
 17 41  1  0
 19 42  1  0
 19 43  1  0
 20 44  1  0
 20 45  1  0
 23 46  1  0
 25 47  1  0
 25 48  1  0
 26 49  1  0
 27 50  1  0
 27 51  1  0
 28 52  1  0
 28 53  1  0
 29 54  1  0
 29 55  1  0
M  END
>  <meeko>  (2) 
{"is_sidechain": false}

>  <vina_affinity_kcal_mol>  (2) 
-8.553

>  <pose_rank>  (2) 
2

$$$$

     RDKit          3D

 55 59  0  0  0  0  0  0  0  0999 V2000
   -6.9690    5.2430  -18.1810 O   0  0  0  0  0  0  0  0  0  0  0  0
   -8.4510    5.2940  -18.4170 S   0  0  0  0  0  4  0  0  0  0  0  0
   -9.1330    6.7590  -17.5400 C   0  0  0  0  0  0  0  0  0  0  0  0
  -10.3920    6.2840  -16.8130 C   0  0  0  0  0  0  0  0  0  0  0  0
  -10.1040    4.8670  -16.4030 C   0  0  0  0  0  0  0  0  0  0  0  0
  -10.7600    4.2680  -15.4010 N   0  0  0  0  0  0  0  0  0  0  0  0
  -10.4280    2.9890  -15.1370 C   0  0  0  0  0  0  0  0  0  0  0  0
  -11.1020    2.3110  -14.1140 N   0  0  0  0  0  0  0  0  0  0  0  0
  -10.2250    1.4770  -13.2840 C   0  0  0  0  0  0  0  0  0  0  0  0
  -11.0490    0.6110  -12.3350 C   0  0  0  0  0  0  0  0  0  0  0  0
  -12.0140    1.4710  -11.5170 C   0  0  0  0  0  0  0  0  0  0  0  0
  -12.8240    0.6270  -10.5620 C   0  0  0  0  0  0  0  0  0  0  0  0
  -12.1890   -0.3950   -9.9500 N   0  0  0  0  0  0  0  0  0  0  0  0
  -12.9310   -1.1450   -9.1020 C   0  0  0  0  0  0  0  0  0  0  0  0
  -14.2620   -0.9160   -8.8470 C   0  0  0  0  0  0  0  0  0  0  0  0
  -15.1650   -1.8870   -7.7690 Cl  0  0  0  0  0  0  0  0  0  0  0  0
  -14.8150    0.1480   -9.5180 C   0  0  0  0  0  0  0  0  0  0  0  0
  -14.1240    0.9320  -10.3750 N   0  0  0  0  0  0  0  0  0  0  0  0
  -12.9160    2.2790  -12.4530 C   0  0  0  0  0  0  0  0  0  0  0  0
  -12.0800    3.1360  -13.4000 C   0  0  0  0  0  0  0  0  0  0  0  0
   -9.4830    2.3240  -15.8450 N   0  0  0  0  0  0  0  0  0  0  0  0
   -8.8180    2.9590  -16.8320 C   0  0  0  0  0  0  0  0  0  0  0  0
   -7.8260    2.2700  -17.5710 N   0  0  0  0  0  0  0  0  0  0  0  0
   -6.6200    1.6910  -17.0100 C   0  0  0  0  0  0  0  0  0  0  0  0
   -5.8340    2.6820  -16.1400 C   0  0  0  0  0  0  0  0  0  0  0  0
   -5.1410    3.6410  -16.9330 O   0  0  0  0  0  0  0  0  0  0  0  0
   -6.9610    0.3630  -16.2570 C   0  0  0  0  0  0  0  0  0  0  0  0
   -5.7160   -0.2620  -16.9170 C   0  0  0  0  0  0  0  0  0  0  0  0
   -5.8410    0.8020  -18.0250 C   0  0  0  0  0  0  0  0  0  0  0  0
   -9.1440    4.2490  -17.1610 C   0  0  0  0  0  0  0  0  0  0  0  0
   -8.3993    7.1443  -16.8167 H   0  0  0  0  0  0  0  0  0  0  0  0
   -9.3636    7.5719  -18.2442 H   0  0  0  0  0  0  0  0  0  0  0  0
  -10.5850    6.9091  -15.9287 H   0  0  0  0  0  0  0  0  0  0  0  0
  -11.2845    6.3520  -17.4524 H   0  0  0  0  0  0  0  0  0  0  0  0
   -9.6218    0.8271  -13.9350 H   0  0  0  0  0  0  0  0  0  0  0  0
   -9.5710    2.1318  -12.6894 H   0  0  0  0  0  0  0  0  0  0  0  0
  -11.6253   -0.1196  -12.9216 H   0  0  0  0  0  0  0  0  0  0  0  0
  -10.3656    0.0937  -11.6455 H   0  0  0  0  0  0  0  0  0  0  0  0
  -11.4273    2.1743  -10.9077 H   0  0  0  0  0  0  0  0  0  0  0  0
  -12.4411   -1.9851   -8.5880 H   0  0  0  0  0  0  0  0  0  0  0  0
  -15.8781    0.3740   -9.3484 H   0  0  0  0  0  0  0  0  0  0  0  0
  -13.5356    1.5878  -13.0432 H   0  0  0  0  0  0  0  0  0  0  0  0
  -13.5534    2.9398  -11.8471 H   0  0  0  0  0  0  0  0  0  0  0  0
  -12.7445    3.6219  -14.1296 H   0  0  0  0  0  0  0  0  0  0  0  0
  -11.5424    3.8939  -12.8114 H   0  0  0  0  0  0  0  0  0  0  0  0
   -7.6350    2.8250  -18.4120 H   0  0  0  0  0  0  0  0  0  0  0  0
   -6.5354    3.2080  -15.4757 H   0  0  0  0  0  0  0  0  0  0  0  0
   -5.0917    2.1156  -15.5584 H   0  0  0  0  0  0  0  0  0  0  0  0
   -5.7150    3.8250  -17.7060 H   0  0  0  0  0  0  0  0  0  0  0  0
   -6.9110    0.4331  -15.1604 H   0  0  0  0  0  0  0  0  0  0  0  0
   -7.9525   -0.1065  -16.3379 H   0  0  0  0  0  0  0  0  0  0  0  0
   -4.7965   -0.1920  -16.3172 H   0  0  0  0  0  0  0  0  0  0  0  0
   -5.6670   -1.3354  -17.1526 H   0  0  0  0  0  0  0  0  0  0  0  0
   -4.8832    1.2254  -18.3616 H   0  0  0  0  0  0  0  0  0  0  0  0
   -6.2600    0.5561  -19.0119 H   0  0  0  0  0  0  0  0  0  0  0  0
  1  2  2  0
  2  3  1  1
  3  4  1  0
  4  5  1  0
  5  6  2  0
  6  7  1  0
  7  8  1  0
  8  9  1  0
  9 10  1  0
 10 11  1  0
 11 12  1  0
 12 13  2  0
 13 14  1  0
 14 15  2  0
 15 16  1  0
 15 17  1  0
 17 18  2  0
 11 19  1  0
 19 20  1  0
  7 21  2  0
 21 22  1  0
 22 23  1  0
 23 24  1  0
 24 25  1  0
 25 26  1  0
 24 27  1  0
 27 28  1  0
 28 29  1  0
 22 30  2  0
 30  2  1  0
 30  5  1  0
 20  8  1  0
 29 24  1  0
 18 12  1  0
  3 31  1  0
  3 32  1  0
  4 33  1  0
  4 34  1  0
  9 35  1  0
  9 36  1  0
 10 37  1  0
 10 38  1  0
 11 39  1  0
 14 40  1  0
 17 41  1  0
 19 42  1  0
 19 43  1  0
 20 44  1  0
 20 45  1  0
 23 46  1  0
 25 47  1  0
 25 48  1  0
 26 49  1  0
 27 50  1  0
 27 51  1  0
 28 52  1  0
 28 53  1  0
 29 54  1  0
 29 55  1  0
M  END
>  <meeko>  (3) 
{"is_sidechain": false}

>  <vina_affinity_kcal_mol>  (3) 
-8.398

>  <pose_rank>  (3) 
3

$$$$

     RDKit          3D

 55 59  0  0  0  0  0  0  0  0999 V2000
  -14.9680   -2.5900   -7.6040 O   0  0  0  0  0  0  0  0  0  0  0  0
  -14.6470   -1.1700   -7.2380 S   0  0  0  0  0  4  0  0  0  0  0  0
  -16.1380   -0.1370   -7.5380 C   0  0  0  0  0  0  0  0  0  0  0  0
  -15.6570    1.1180   -8.2690 C   0  0  0  0  0  0  0  0  0  0  0  0
  -14.5150    0.6630   -9.1340 C   0  0  0  0  0  0  0  0  0  0  0  0
  -14.1230    1.3480  -10.2160 N   0  0  0  0  0  0  0  0  0  0  0  0
  -13.0760    0.8510  -10.9030 C   0  0  0  0  0  0  0  0  0  0  0  0
  -12.6120    1.5450  -12.0280 N   0  0  0  0  0  0  0  0  0  0  0  0
  -13.3300    2.7990  -12.2810 C   0  0  0  0  0  0  0  0  0  0  0  0
  -12.9200    3.3890  -13.6270 C   0  0  0  0  0  0  0  0  0  0  0  0
  -11.4000    3.5370  -13.7140 C   0  0  0  0  0  0  0  0  0  0  0  0
  -10.9830    4.1350  -15.0360 C   0  0  0  0  0  0  0  0  0  0  0  0
  -11.6050    5.2670  -15.4260 N   0  0  0  0  0  0  0  0  0  0  0  0
  -11.2240    5.7860  -16.6160 C   0  0  0  0  0  0  0  0  0  0  0  0
  -10.2590    5.2260  -17.4190 C   0  0  0  0  0  0  0  0  0  0  0  0
   -9.8050    5.9130  -18.9170 Cl  0  0  0  0  0  0  0  0  0  0  0  0
   -9.6840    4.0760  -16.9320 C   0  0  0  0  0  0  0  0  0  0  0  0
  -10.0240    3.5120  -15.7510 N   0  0  0  0  0  0  0  0  0  0  0  0
  -10.7300    2.1820  -13.4760 C   0  0  0  0  0  0  0  0  0  0  0  0
  -11.1510    1.6000  -12.1290 C   0  0  0  0  0  0  0  0  0  0  0  0
  -12.4350   -0.2820  -10.5280 N   0  0  0  0  0  0  0  0  0  0  0  0
  -12.8670   -0.9690   -9.4500 C   0  0  0  0  0  0  0  0  0  0  0  0
  -12.2040   -2.1570   -9.0590 N   0  0  0  0  0  0  0  0  0  0  0  0
  -12.0620   -3.3440   -9.8810 C   0  0  0  0  0  0  0  0  0  0  0  0
  -10.8170   -3.3000  -10.7770 C   0  0  0  0  0  0  0  0  0  0  0  0
  -11.1380   -2.8870  -12.1020 O   0  0  0  0  0  0  0  0  0  0  0  0
  -12.1190   -4.6260   -8.9880 C   0  0  0  0  0  0  0  0  0  0  0  0
  -13.0380   -5.2560  -10.0530 C   0  0  0  0  0  0  0  0  0  0  0  0
  -13.4100   -3.8270  -10.4930 C   0  0  0  0  0  0  0  0  0  0  0  0
  -13.9070   -0.4860   -8.6990 C   0  0  0  0  0  0  0  0  0  0  0  0
  -16.8613   -0.6851   -8.1596 H   0  0  0  0  0  0  0  0  0  0  0  0
  -16.6401    0.1205   -6.5938 H   0  0  0  0  0  0  0  0  0  0  0  0
  -16.4648    1.5368   -8.8870 H   0  0  0  0  0  0  0  0  0  0  0  0
  -15.3495    1.9075   -7.5675 H   0  0  0  0  0  0  0  0  0  0  0  0
  -14.4121    2.6013  -12.2872 H   0  0  0  0  0  0  0  0  0  0  0  0
  -13.0797    3.5180  -11.4870 H   0  0  0  0  0  0  0  0  0  0  0  0
  -13.2644    2.7237  -14.4325 H   0  0  0  0  0  0  0  0  0  0  0  0
  -13.3779    4.3838  -13.7305 H   0  0  0  0  0  0  0  0  0  0  0  0
  -11.0686    4.2316  -12.9280 H   0  0  0  0  0  0  0  0  0  0  0  0
  -11.7143    6.7085  -16.9605 H   0  0  0  0  0  0  0  0  0  0  0  0
   -8.9049    3.5881  -17.5361 H   0  0  0  0  0  0  0  0  0  0  0  0
  -11.0247    1.4880  -14.2770 H   0  0  0  0  0  0  0  0  0  0  0  0
   -9.6390    2.3228  -13.4745 H   0  0  0  0  0  0  0  0  0  0  0  0
  -10.7427    0.5833  -12.0304 H   0  0  0  0  0  0  0  0  0  0  0  0
  -10.7628    2.2439  -11.3261 H   0  0  0  0  0  0  0  0  0  0  0  0
  -12.5200   -2.3800   -8.1080 H   0  0  0  0  0  0  0  0  0  0  0  0
  -10.0933   -2.5914  -10.3478 H   0  0  0  0  0  0  0  0  0  0  0  0
  -10.3929   -4.3138  -10.8262 H   0  0  0  0  0  0  0  0  0  0  0  0
  -10.4860   -3.3210  -12.6910 H   0  0  0  0  0  0  0  0  0  0  0  0
  -11.1531   -5.1360   -8.8576 H   0  0  0  0  0  0  0  0  0  0  0  0
  -12.4136   -4.5775   -7.9293 H   0  0  0  0  0  0  0  0  0  0  0  0
  -12.5135   -5.8481  -10.8174 H   0  0  0  0  0  0  0  0  0  0  0  0
  -13.8078   -5.9946   -9.7850 H   0  0  0  0  0  0  0  0  0  0  0  0
  -13.4919   -3.6912  -11.5815 H   0  0  0  0  0  0  0  0  0  0  0  0
  -14.3676   -3.3690  -10.2046 H   0  0  0  0  0  0  0  0  0  0  0  0
  1  2  2  0
  2  3  1  6
  3  4  1  0
  4  5  1  0
  5  6  2  0
  6  7  1  0
  7  8  1  0
  8  9  1  0
  9 10  1  0
 10 11  1  0
 11 12  1  0
 12 13  2  0
 13 14  1  0
 14 15  2  0
 15 16  1  0
 15 17  1  0
 17 18  2  0
 11 19  1  0
 19 20  1  0
  7 21  2  0
 21 22  1  0
 22 23  1  0
 23 24  1  0
 24 25  1  0
 25 26  1  0
 24 27  1  0
 27 28  1  0
 28 29  1  0
 22 30  2  0
 30  2  1  0
 30  5  1  0
 20  8  1  0
 29 24  1  0
 18 12  1  0
  3 31  1  0
  3 32  1  0
  4 33  1  0
  4 34  1  0
  9 35  1  0
  9 36  1  0
 10 37  1  0
 10 38  1  0
 11 39  1  0
 14 40  1  0
 17 41  1  0
 19 42  1  0
 19 43  1  0
 20 44  1  0
 20 45  1  0
 23 46  1  0
 25 47  1  0
 25 48  1  0
 26 49  1  0
 27 50  1  0
 27 51  1  0
 28 52  1  0
 28 53  1  0
 29 54  1  0
 29 55  1  0
M  END
>  <meeko>  (4) 
{"is_sidechain": false}

>  <vina_affinity_kcal_mol>  (4) 
-7.832

>  <pose_rank>  (4) 
4

$$$$

     RDKit          3D

 55 59  0  0  0  0  0  0  0  0999 V2000
   -7.0310    3.0840  -18.1230 O   0  0  0  0  0  0  0  0  0  0  0  0
   -6.6650    3.7050  -16.8060 S   0  0  0  0  0  4  0  0  0  0  0  0
   -5.5710    2.5410  -15.8950 C   0  0  0  0  0  0  0  0  0  0  0  0
   -6.0930    2.4890  -14.4580 C   0  0  0  0  0  0  0  0  0  0  0  0
   -7.5840    2.6430  -14.5700 C   0  0  0  0  0  0  0  0  0  0  0  0
   -8.4180    2.2280  -13.6080 N   0  0  0  0  0  0  0  0  0  0  0  0
   -9.7330    2.4360  -13.8120 C   0  0  0  0  0  0  0  0  0  0  0  0
  -10.6440    2.0410  -12.8240 N   0  0  0  0  0  0  0  0  0  0  0  0
  -12.0130    2.5060  -13.0690 C   0  0  0  0  0  0  0  0  0  0  0  0
  -12.8990    2.2240  -11.8590 C   0  0  0  0  0  0  0  0  0  0  0  0
  -12.8250    0.7480  -11.4640 C   0  0  0  0  0  0  0  0  0  0  0  0
  -13.7100    0.4530  -10.2780 C   0  0  0  0  0  0  0  0  0  0  0  0
  -14.5930    1.4060   -9.9130 N   0  0  0  0  0  0  0  0  0  0  0  0
  -15.3740    1.1290   -8.8430 C   0  0  0  0  0  0  0  0  0  0  0  0
  -15.3080   -0.0480   -8.1350 C   0  0  0  0  0  0  0  0  0  0  0  0
  -16.3130   -0.3610   -6.7890 Cl  0  0  0  0  0  0  0  0  0  0  0  0
  -14.3790   -0.9540   -8.5870 C   0  0  0  0  0  0  0  0  0  0  0  0
  -13.5720   -0.7320   -9.6490 N   0  0  0  0  0  0  0  0  0  0  0  0
  -11.3720    0.3530  -11.1910 C   0  0  0  0  0  0  0  0  0  0  0  0
  -10.4960    0.6440  -12.4060 C   0  0  0  0  0  0  0  0  0  0  0  0
  -10.2060    3.0420  -14.9270 N   0  0  0  0  0  0  0  0  0  0  0  0
   -9.3470    3.4280  -15.8940 C   0  0  0  0  0  0  0  0  0  0  0  0
   -9.8380    4.0560  -17.0640 N   0  0  0  0  0  0  0  0  0  0  0  0
  -10.2780    5.4360  -17.1480 C   0  0  0  0  0  0  0  0  0  0  0  0
  -11.0120    5.9040  -15.8840 C   0  0  0  0  0  0  0  0  0  0  0  0
  -12.2610    5.2380  -15.7270 O   0  0  0  0  0  0  0  0  0  0  0  0
   -9.0750    6.3610  -17.5260 C   0  0  0  0  0  0  0  0  0  0  0  0
  -10.0150    7.0830  -18.5110 C   0  0  0  0  0  0  0  0  0  0  0  0
  -10.8720    5.8030  -18.5410 C   0  0  0  0  0  0  0  0  0  0  0  0
   -7.9970    3.2680  -15.7170 C   0  0  0  0  0  0  0  0  0  0  0  0
   -5.6154    1.5413  -16.3519 H   0  0  0  0  0  0  0  0  0  0  0  0
   -4.5229    2.8735  -15.9257 H   0  0  0  0  0  0  0  0  0  0  0  0
   -5.8394    1.5259  -13.9909 H   0  0  0  0  0  0  0  0  0  0  0  0
   -5.6462    3.2749  -13.8314 H   0  0  0  0  0  0  0  0  0  0  0  0
  -11.9982    3.5888  -13.2621 H   0  0  0  0  0  0  0  0  0  0  0  0
  -12.4196    1.9706  -13.9396 H   0  0  0  0  0  0  0  0  0  0  0  0
  -12.5615    2.8411  -11.0132 H   0  0  0  0  0  0  0  0  0  0  0  0
  -13.9396    2.4677  -12.1194 H   0  0  0  0  0  0  0  0  0  0  0  0
  -13.1984    0.1412  -12.3021 H   0  0  0  0  0  0  0  0  0  0  0  0
  -16.1025    1.8880   -8.5216 H   0  0  0  0  0  0  0  0  0  0  0  0
  -14.2867   -1.9127   -8.0556 H   0  0  0  0  0  0  0  0  0  0  0  0
  -10.9976    0.9266  -10.3303 H   0  0  0  0  0  0  0  0  0  0  0  0
  -11.3331   -0.7254  -10.9774 H   0  0  0  0  0  0  0  0  0  0  0  0
   -9.4440    0.4532  -12.1476 H   0  0  0  0  0  0  0  0  0  0  0  0
  -10.8082   -0.0096  -13.2339 H   0  0  0  0  0  0  0  0  0  0  0  0
  -10.5060    3.4090  -17.4970 H   0  0  0  0  0  0  0  0  0  0  0  0
  -10.3824    5.6936  -15.0069 H   0  0  0  0  0  0  0  0  0  0  0  0
  -11.2063    6.9826  -15.9780 H   0  0  0  0  0  0  0  0  0  0  0  0
  -12.0670    4.3910  -15.2730 H   0  0  0  0  0  0  0  0  0  0  0  0
   -8.7050    6.9896  -16.7026 H   0  0  0  0  0  0  0  0  0  0  0  0
   -8.1096    5.9458  -17.8510 H   0  0  0  0  0  0  0  0  0  0  0  0
  -10.5241    7.9647  -18.0945 H   0  0  0  0  0  0  0  0  0  0  0  0
   -9.6362    7.5438  -19.4352 H   0  0  0  0  0  0  0  0  0  0  0  0
  -11.9576    5.9803  -18.5421 H   0  0  0  0  0  0  0  0  0  0  0  0
  -10.8261    5.1016  -19.3871 H   0  0  0  0  0  0  0  0  0  0  0  0
  1  2  2  0
  2  3  1  1
  3  4  1  0
  4  5  1  0
  5  6  2  0
  6  7  1  0
  7  8  1  0
  8  9  1  0
  9 10  1  0
 10 11  1  0
 11 12  1  0
 12 13  2  0
 13 14  1  0
 14 15  2  0
 15 16  1  0
 15 17  1  0
 17 18  2  0
 11 19  1  0
 19 20  1  0
  7 21  2  0
 21 22  1  0
 22 23  1  0
 23 24  1  0
 24 25  1  0
 25 26  1  0
 24 27  1  0
 27 28  1  0
 28 29  1  0
 22 30  2  0
 30  2  1  0
 30  5  1  0
 20  8  1  0
 29 24  1  0
 18 12  1  0
  3 31  1  0
  3 32  1  0
  4 33  1  0
  4 34  1  0
  9 35  1  0
  9 36  1  0
 10 37  1  0
 10 38  1  0
 11 39  1  0
 14 40  1  0
 17 41  1  0
 19 42  1  0
 19 43  1  0
 20 44  1  0
 20 45  1  0
 23 46  1  0
 25 47  1  0
 25 48  1  0
 26 49  1  0
 27 50  1  0
 27 51  1  0
 28 52  1  0
 28 53  1  0
 29 54  1  0
 29 55  1  0
M  END
>  <meeko>  (5) 
{"is_sidechain": false}

>  <vina_affinity_kcal_mol>  (5) 
-7.751

>  <pose_rank>  (5) 
5

$$$$

     RDKit          3D

 55 59  0  0  0  0  0  0  0  0999 V2000
  -11.3410    5.9850  -17.6810 O   0  0  0  0  0  0  0  0  0  0  0  0
   -9.8860    6.1550  -17.3500 S   0  0  0  0  0  4  0  0  0  0  0  0
   -8.9240    6.1390  -18.9160 C   0  0  0  0  0  0  0  0  0  0  0  0
   -7.7230    5.2210  -18.6800 C   0  0  0  0  0  0  0  0  0  0  0  0
   -8.2190    4.1470  -17.7520 C   0  0  0  0  0  0  0  0  0  0  0  0
   -7.6180    2.9550  -17.6570 N   0  0  0  0  0  0  0  0  0  0  0  0
   -8.1420    2.0790  -16.7780 C   0  0  0  0  0  0  0  0  0  0  0  0
   -7.5340    0.8260  -16.6240 N   0  0  0  0  0  0  0  0  0  0  0  0
   -6.2320    0.7200  -17.2910 C   0  0  0  0  0  0  0  0  0  0  0  0
   -5.7310   -0.7210  -17.2620 C   0  0  0  0  0  0  0  0  0  0  0  0
   -5.7210   -1.2630  -15.8320 C   0  0  0  0  0  0  0  0  0  0  0  0
   -5.2110   -2.6830  -15.7880 C   0  0  0  0  0  0  0  0  0  0  0  0
   -6.0710   -3.6360  -15.3700 N   0  0  0  0  0  0  0  0  0  0  0  0
   -5.5970   -4.9030  -15.3300 C   0  0  0  0  0  0  0  0  0  0  0  0
   -4.3150   -5.2480  -15.6860 C   0  0  0  0  0  0  0  0  0  0  0  0
   -3.7530   -6.8610  -15.6220 Cl  0  0  0  0  0  0  0  0  0  0  0  0
   -3.5180   -4.2070  -16.0990 C   0  0  0  0  0  0  0  0  0  0  0  0
   -3.9370   -2.9230  -16.1600 N   0  0  0  0  0  0  0  0  0  0  0  0
   -7.1200   -1.1510  -15.2220 C   0  0  0  0  0  0  0  0  0  0  0  0
   -7.6120    0.2940  -15.2610 C   0  0  0  0  0  0  0  0  0  0  0  0
   -9.2210    2.3760  -16.0140 N   0  0  0  0  0  0  0  0  0  0  0  0
   -9.8250    3.5750  -16.1490 C   0  0  0  0  0  0  0  0  0  0  0  0
  -10.9570    3.8870  -15.3580 N   0  0  0  0  0  0  0  0  0  0  0  0
  -11.2610    3.2990  -14.0670 C   0  0  0  0  0  0  0  0  0  0  0  0
  -10.0550    3.2950  -13.1170 C   0  0  0  0  0  0  0  0  0  0  0  0
   -9.5820    1.9740  -12.8750 O   0  0  0  0  0  0  0  0  0  0  0  0
  -12.5190    3.9890  -13.4460 C   0  0  0  0  0  0  0  0  0  0  0  0
  -13.0180    2.5870  -13.0450 C   0  0  0  0  0  0  0  0  0  0  0  0
  -12.1370    2.0150  -14.1730 C   0  0  0  0  0  0  0  0  0  0  0  0
   -9.3080    4.5130  -17.0060 C   0  0  0  0  0  0  0  0  0  0  0  0
   -9.5431    5.7507  -19.7381 H   0  0  0  0  0  0  0  0  0  0  0  0
   -8.6005    7.1529  -19.1940 H   0  0  0  0  0  0  0  0  0  0  0  0
   -7.3814    4.7822  -19.6291 H   0  0  0  0  0  0  0  0  0  0  0  0
   -6.8678    5.7667  -18.2548 H   0  0  0  0  0  0  0  0  0  0  0  0
   -6.3334    1.0468  -18.3364 H   0  0  0  0  0  0  0  0  0  0  0  0
   -5.5089    1.3582  -16.7620 H   0  0  0  0  0  0  0  0  0  0  0  0
   -6.3929   -1.3456  -17.8799 H   0  0  0  0  0  0  0  0  0  0  0  0
   -4.7043   -0.7456  -17.6559 H   0  0  0  0  0  0  0  0  0  0  0  0
   -5.0298   -0.6545  -15.2304 H   0  0  0  0  0  0  0  0  0  0  0  0
   -6.2754   -5.7010  -14.9939 H   0  0  0  0  0  0  0  0  0  0  0  0
   -2.4828   -4.4308  -16.3961 H   0  0  0  0  0  0  0  0  0  0  0  0
   -7.8147   -1.7845  -15.7931 H   0  0  0  0  0  0  0  0  0  0  0  0
   -7.0761   -1.4813  -14.1737 H   0  0  0  0  0  0  0  0  0  0  0  0
   -8.6564    0.3302  -14.9175 H   0  0  0  0  0  0  0  0  0  0  0  0
   -6.9753    0.9045  -14.6038 H   0  0  0  0  0  0  0  0  0  0  0  0
  -11.7710    3.8920  -15.9820 H   0  0  0  0  0  0  0  0  0  0  0  0
   -9.2446    3.8874  -13.5667 H   0  0  0  0  0  0  0  0  0  0  0  0
  -10.3723    3.7278  -12.1568 H   0  0  0  0  0  0  0  0  0  0  0  0
   -9.7010    1.8100  -11.9160 H   0  0  0  0  0  0  0  0  0  0  0  0
  -12.3030    4.6572  -12.5993 H   0  0  0  0  0  0  0  0  0  0  0  0
  -13.1459    4.6774  -14.0317 H   0  0  0  0  0  0  0  0  0  0  0  0
  -12.7275    2.2703  -12.0324 H   0  0  0  0  0  0  0  0  0  0  0  0
  -14.0912    2.3550  -12.9788 H   0  0  0  0  0  0  0  0  0  0  0  0
  -11.6136    1.0825  -13.9153 H   0  0  0  0  0  0  0  0  0  0  0  0
  -12.5695    1.6928  -15.1317 H   0  0  0  0  0  0  0  0  0  0  0  0
  1  2  2  0
  2  3  1  6
  3  4  1  0
  4  5  1  0
  5  6  2  0
  6  7  1  0
  7  8  1  0
  8  9  1  0
  9 10  1  0
 10 11  1  0
 11 12  1  0
 12 13  2  0
 13 14  1  0
 14 15  2  0
 15 16  1  0
 15 17  1  0
 17 18  2  0
 11 19  1  0
 19 20  1  0
  7 21  2  0
 21 22  1  0
 22 23  1  0
 23 24  1  0
 24 25  1  0
 25 26  1  0
 24 27  1  0
 27 28  1  0
 28 29  1  0
 22 30  2  0
 30  2  1  0
 30  5  1  0
 20  8  1  0
 29 24  1  0
 18 12  1  0
  3 31  1  0
  3 32  1  0
  4 33  1  0
  4 34  1  0
  9 35  1  0
  9 36  1  0
 10 37  1  0
 10 38  1  0
 11 39  1  0
 14 40  1  0
 17 41  1  0
 19 42  1  0
 19 43  1  0
 20 44  1  0
 20 45  1  0
 23 46  1  0
 25 47  1  0
 25 48  1  0
 26 49  1  0
 27 50  1  0
 27 51  1  0
 28 52  1  0
 28 53  1  0
 29 54  1  0
 29 55  1  0
M  END
>  <meeko>  (6) 
{"is_sidechain": false}

>  <vina_affinity_kcal_mol>  (6) 
-7.738

>  <pose_rank>  (6) 
6

$$$$

     RDKit          3D

 55 59  0  0  0  0  0  0  0  0999 V2000
   -5.5240    1.3820  -17.4500 O   0  0  0  0  0  0  0  0  0  0  0  0
   -6.9320    1.6320  -17.9060 S   0  0  0  0  0  4  0  0  0  0  0  0
   -7.3540    3.3890  -17.5670 C   0  0  0  0  0  0  0  0  0  0  0  0
   -8.7460    3.3870  -16.9310 C   0  0  0  0  0  0  0  0  0  0  0  0
   -8.8100    2.1250  -16.1170 C   0  0  0  0  0  0  0  0  0  0  0  0
   -9.6660    1.9770  -15.0980 N   0  0  0  0  0  0  0  0  0  0  0  0
   -9.6440    0.7950  -14.4530 C   0  0  0  0  0  0  0  0  0  0  0  0
  -10.5380    0.5820  -13.3950 N   0  0  0  0  0  0  0  0  0  0  0  0
  -10.0660   -0.4050  -12.4180 C   0  0  0  0  0  0  0  0  0  0  0  0
  -11.1710   -0.7400  -11.4190 C   0  0  0  0  0  0  0  0  0  0  0  0
  -11.7220    0.5320  -10.7730 C   0  0  0  0  0  0  0  0  0  0  0  0
  -12.8040    0.2130   -9.7710 C   0  0  0  0  0  0  0  0  0  0  0  0
  -14.0270    0.7400   -9.9920 N   0  0  0  0  0  0  0  0  0  0  0  0
  -14.9840    0.4500   -9.0810 C   0  0  0  0  0  0  0  0  0  0  0  0
  -14.7690   -0.3350   -7.9730 C   0  0  0  0  0  0  0  0  0  0  0  0
  -16.0050   -0.6800   -6.8440 Cl  0  0  0  0  0  0  0  0  0  0  0  0
  -13.4920   -0.8260   -7.8380 C   0  0  0  0  0  0  0  0  0  0  0  0
  -12.4960   -0.5700   -8.7160 N   0  0  0  0  0  0  0  0  0  0  0  0
  -12.2250    1.4910  -11.8540 C   0  0  0  0  0  0  0  0  0  0  0  0
  -11.1130    1.8140  -12.8490 C   0  0  0  0  0  0  0  0  0  0  0  0
   -8.8080   -0.2100  -14.8080 N   0  0  0  0  0  0  0  0  0  0  0  0
   -7.9360   -0.0260  -15.8220 C   0  0  0  0  0  0  0  0  0  0  0  0
   -7.0560   -1.0710  -16.1930 N   0  0  0  0  0  0  0  0  0  0  0  0
   -5.8020   -1.3810  -15.5330 C   0  0  0  0  0  0  0  0  0  0  0  0
   -5.4280   -0.3530  -14.4550 C   0  0  0  0  0  0  0  0  0  0  0  0
   -4.4110    0.5350  -14.9080 O   0  0  0  0  0  0  0  0  0  0  0  0
   -5.8300   -2.8460  -14.9870 C   0  0  0  0  0  0  0  0  0  0  0  0
   -4.3960   -3.0130  -15.5260 C   0  0  0  0  0  0  0  0  0  0  0  0
   -4.6990   -1.8720  -16.5160 C   0  0  0  0  0  0  0  0  0  0  0  0
   -7.9430    1.1470  -16.5310 C   0  0  0  0  0  0  0  0  0  0  0  0
   -6.6208    3.8292  -16.8752 H   0  0  0  0  0  0  0  0  0  0  0  0
   -7.3395    3.9867  -18.4903 H   0  0  0  0  0  0  0  0  0  0  0  0
   -8.8758    4.2684  -16.2857 H   0  0  0  0  0  0  0  0  0  0  0  0
   -9.5425    3.4264  -17.6887 H   0  0  0  0  0  0  0  0  0  0  0  0
   -9.7655   -1.3219  -12.9462 H   0  0  0  0  0  0  0  0  0  0  0  0
   -9.2091    0.0167  -11.8722 H   0  0  0  0  0  0  0  0  0  0  0  0
  -11.9859   -1.2604  -11.9435 H   0  0  0  0  0  0  0  0  0  0  0  0
  -10.7514   -1.3827  -10.6310 H   0  0  0  0  0  0  0  0  0  0  0  0
  -10.9085    1.0261  -10.2215 H   0  0  0  0  0  0  0  0  0  0  0  0
  -15.9907    0.8656   -9.2354 H   0  0  0  0  0  0  0  0  0  0  0  0
  -13.2683   -1.4616   -6.9685 H   0  0  0  0  0  0  0  0  0  0  0  0
  -13.0641    1.0231  -12.3897 H   0  0  0  0  0  0  0  0  0  0  0  0
  -12.5520    2.4250  -11.3737 H   0  0  0  0  0  0  0  0  0  0  0  0
  -11.5270    2.4156  -13.6716 H   0  0  0  0  0  0  0  0  0  0  0  0
  -10.3226    2.3750  -12.3288 H   0  0  0  0  0  0  0  0  0  0  0  0
   -6.9570   -1.0350  -17.2140 H   0  0  0  0  0  0  0  0  0  0  0  0
   -6.3223    0.2319  -14.1939 H   0  0  0  0  0  0  0  0  0  0  0  0
   -5.0448   -0.8969  -13.5790 H   0  0  0  0  0  0  0  0  0  0  0  0
   -4.6740    1.4300  -14.6080 H   0  0  0  0  0  0  0  0  0  0  0  0
   -5.9197   -2.9249  -13.8935 H   0  0  0  0  0  0  0  0  0  0  0  0
   -6.6327   -3.5467  -15.2603 H   0  0  0  0  0  0  0  0  0  0  0  0
   -3.6039   -2.7878  -14.7967 H   0  0  0  0  0  0  0  0  0  0  0  0
   -4.0193   -3.9880  -15.8686 H   0  0  0  0  0  0  0  0  0  0  0  0
   -3.8706   -1.1635  -16.6632 H   0  0  0  0  0  0  0  0  0  0  0  0
   -4.9229   -2.0751  -17.5737 H   0  0  0  0  0  0  0  0  0  0  0  0
  1  2  2  0
  2  3  1  1
  3  4  1  0
  4  5  1  0
  5  6  2  0
  6  7  1  0
  7  8  1  0
  8  9  1  0
  9 10  1  0
 10 11  1  0
 11 12  1  0
 12 13  2  0
 13 14  1  0
 14 15  2  0
 15 16  1  0
 15 17  1  0
 17 18  2  0
 11 19  1  0
 19 20  1  0
  7 21  2  0
 21 22  1  0
 22 23  1  0
 23 24  1  0
 24 25  1  0
 25 26  1  0
 24 27  1  0
 27 28  1  0
 28 29  1  0
 22 30  2  0
 30  2  1  0
 30  5  1  0
 20  8  1  0
 29 24  1  0
 18 12  1  0
  3 31  1  0
  3 32  1  0
  4 33  1  0
  4 34  1  0
  9 35  1  0
  9 36  1  0
 10 37  1  0
 10 38  1  0
 11 39  1  0
 14 40  1  0
 17 41  1  0
 19 42  1  0
 19 43  1  0
 20 44  1  0
 20 45  1  0
 23 46  1  0
 25 47  1  0
 25 48  1  0
 26 49  1  0
 27 50  1  0
 27 51  1  0
 28 52  1  0
 28 53  1  0
 29 54  1  0
 29 55  1  0
M  END
>  <meeko>  (7) 
{"is_sidechain": false}

>  <vina_affinity_kcal_mol>  (7) 
-7.728

>  <pose_rank>  (7) 
7

$$$$

     RDKit          3D

 55 59  0  0  0  0  0  0  0  0999 V2000
   -6.6730    2.6600  -18.0760 O   0  0  0  0  0  0  0  0  0  0  0  0
   -6.3570    3.3540  -16.7830 S   0  0  0  0  0  4  0  0  0  0  0  0
   -5.2880    2.2510  -15.7730 C   0  0  0  0  0  0  0  0  0  0  0  0
   -5.8600    2.2720  -14.3540 C   0  0  0  0  0  0  0  0  0  0  0  0
   -7.3470    2.4090  -14.5250 C   0  0  0  0  0  0  0  0  0  0  0  0
   -8.2110    2.0390  -13.5710 N   0  0  0  0  0  0  0  0  0  0  0  0
   -9.5200    2.2260  -13.8320 C   0  0  0  0  0  0  0  0  0  0  0  0
  -10.4620    1.8780  -12.8560 N   0  0  0  0  0  0  0  0  0  0  0  0
  -11.8070    2.3950  -13.1280 C   0  0  0  0  0  0  0  0  0  0  0  0
  -12.7240    2.1620  -11.9300 C   0  0  0  0  0  0  0  0  0  0  0  0
  -12.7170    0.6880  -11.5210 C   0  0  0  0  0  0  0  0  0  0  0  0
  -13.6320    0.4410  -10.3470 C   0  0  0  0  0  0  0  0  0  0  0  0
  -14.4430    1.4520   -9.9710 N   0  0  0  0  0  0  0  0  0  0  0  0
  -15.2530    1.2170   -8.9140 C   0  0  0  0  0  0  0  0  0  0  0  0
  -15.2830    0.0270   -8.2270 C   0  0  0  0  0  0  0  0  0  0  0  0
  -16.3210   -0.2330   -6.8940 Cl  0  0  0  0  0  0  0  0  0  0  0  0
  -14.4220   -0.9410   -8.6870 C   0  0  0  0  0  0  0  0  0  0  0  0
  -13.5910   -0.7630   -9.7390 N   0  0  0  0  0  0  0  0  0  0  0  0
  -11.2860    0.2370  -11.2200 C   0  0  0  0  0  0  0  0  0  0  0  0
  -10.3780    0.4800  -12.4230 C   0  0  0  0  0  0  0  0  0  0  0  0
   -9.9580    2.7660  -14.9950 N   0  0  0  0  0  0  0  0  0  0  0  0
   -9.0680    3.1050  -15.9500 C   0  0  0  0  0  0  0  0  0  0  0  0
   -9.5210    3.6650  -17.1690 N   0  0  0  0  0  0  0  0  0  0  0  0
   -9.7630    5.0760  -17.4010 C   0  0  0  0  0  0  0  0  0  0  0  0
   -8.5170    5.8180  -17.9030 C   0  0  0  0  0  0  0  0  0  0  0  0
   -8.1040    5.3450  -19.1810 O   0  0  0  0  0  0  0  0  0  0  0  0
  -10.9970    5.2620  -18.3430 C   0  0  0  0  0  0  0  0  0  0  0  0
  -11.4680    6.3930  -17.4080 C   0  0  0  0  0  0  0  0  0  0  0  0
  -10.6340    5.7370  -16.2910 C   0  0  0  0  0  0  0  0  0  0  0  0
   -7.7230    2.9660  -15.7190 C   0  0  0  0  0  0  0  0  0  0  0  0
   -5.3093    1.2278  -16.1762 H   0  0  0  0  0  0  0  0  0  0  0  0
   -4.2418    2.5907  -15.7853 H   0  0  0  0  0  0  0  0  0  0  0  0
   -5.6177    1.3371  -13.8275 H   0  0  0  0  0  0  0  0  0  0  0  0
   -5.4396    3.0937  -13.7556 H   0  0  0  0  0  0  0  0  0  0  0  0
  -11.7452    3.4742  -13.3316 H   0  0  0  0  0  0  0  0  0  0  0  0
  -12.2207    1.8667  -13.9996 H   0  0  0  0  0  0  0  0  0  0  0  0
  -12.3752    2.7729  -11.0843 H   0  0  0  0  0  0  0  0  0  0  0  0
  -13.7493    2.4461  -12.2094 H   0  0  0  0  0  0  0  0  0  0  0  0
  -13.1013    0.0890  -12.3598 H   0  0  0  0  0  0  0  0  0  0  0  0
  -15.9254    2.0233   -8.5857 H   0  0  0  0  0  0  0  0  0  0  0  0
  -14.4083   -1.9127   -8.1716 H   0  0  0  0  0  0  0  0  0  0  0  0
  -10.9028    0.8034  -10.3584 H   0  0  0  0  0  0  0  0  0  0  0  0
  -11.2949   -0.8399  -10.9961 H   0  0  0  0  0  0  0  0  0  0  0  0
   -9.3391    0.2491  -12.1448 H   0  0  0  0  0  0  0  0  0  0  0  0
  -10.7024   -0.1686  -13.2501 H   0  0  0  0  0  0  0  0  0  0  0  0
  -10.2960    3.0800  -17.5010 H   0  0  0  0  0  0  0  0  0  0  0  0
   -8.7463    6.8913  -17.9767 H   0  0  0  0  0  0  0  0  0  0  0  0
   -7.6993    5.6388  -17.1894 H   0  0  0  0  0  0  0  0  0  0  0  0
   -7.3370    4.7550  -19.0210 H   0  0  0  0  0  0  0  0  0  0  0  0
  -10.7480    5.5867  -19.3641 H   0  0  0  0  0  0  0  0  0  0  0  0
  -11.6544    4.4193  -18.6031 H   0  0  0  0  0  0  0  0  0  0  0  0
  -11.1309    7.3985  -17.7003 H   0  0  0  0  0  0  0  0  0  0  0  0
  -12.5356    6.6203  -17.2716 H   0  0  0  0  0  0  0  0  0  0  0  0
  -10.0928    6.4471  -15.6484 H   0  0  0  0  0  0  0  0  0  0  0  0
  -11.1067    5.1368  -15.4996 H   0  0  0  0  0  0  0  0  0  0  0  0
  1  2  2  0
  2  3  1  1
  3  4  1  0
  4  5  1  0
  5  6  2  0
  6  7  1  0
  7  8  1  0
  8  9  1  0
  9 10  1  0
 10 11  1  0
 11 12  1  0
 12 13  2  0
 13 14  1  0
 14 15  2  0
 15 16  1  0
 15 17  1  0
 17 18  2  0
 11 19  1  0
 19 20  1  0
  7 21  2  0
 21 22  1  0
 22 23  1  0
 23 24  1  0
 24 25  1  0
 25 26  1  0
 24 27  1  0
 27 28  1  0
 28 29  1  0
 22 30  2  0
 30  2  1  0
 30  5  1  0
 20  8  1  0
 29 24  1  0
 18 12  1  0
  3 31  1  0
  3 32  1  0
  4 33  1  0
  4 34  1  0
  9 35  1  0
  9 36  1  0
 10 37  1  0
 10 38  1  0
 11 39  1  0
 14 40  1  0
 17 41  1  0
 19 42  1  0
 19 43  1  0
 20 44  1  0
 20 45  1  0
 23 46  1  0
 25 47  1  0
 25 48  1  0
 26 49  1  0
 27 50  1  0
 27 51  1  0
 28 52  1  0
 28 53  1  0
 29 54  1  0
 29 55  1  0
M  END
>  <meeko>  (8) 
{"is_sidechain": false}

>  <vina_affinity_kcal_mol>  (8) 
-7.439

>  <pose_rank>  (8) 
8

$$$$

     RDKit          3D

 55 59  0  0  0  0  0  0  0  0999 V2000
   -9.7960   -1.8570   -9.0820 O   0  0  0  0  0  0  0  0  0  0  0  0
   -9.3030   -2.4350  -10.3770 S   0  0  0  0  0  4  0  0  0  0  0  0
   -7.5030   -2.0870  -10.5250 C   0  0  0  0  0  0  0  0  0  0  0  0
   -7.2740   -1.5830  -11.9510 C   0  0  0  0  0  0  0  0  0  0  0  0
   -8.5150   -0.8130  -12.3060 C   0  0  0  0  0  0  0  0  0  0  0  0
   -8.5250    0.1180  -13.2690 N   0  0  0  0  0  0  0  0  0  0  0  0
   -9.7010    0.7290  -13.5100 C   0  0  0  0  0  0  0  0  0  0  0  0
   -9.7690    1.6930  -14.5240 N   0  0  0  0  0  0  0  0  0  0  0  0
  -10.1400    3.0280  -14.0410 C   0  0  0  0  0  0  0  0  0  0  0  0
  -10.4010    3.9690  -15.2130 C   0  0  0  0  0  0  0  0  0  0  0  0
   -9.2080    3.9850  -16.1710 C   0  0  0  0  0  0  0  0  0  0  0  0
   -9.4470    4.9250  -17.3270 C   0  0  0  0  0  0  0  0  0  0  0  0
   -8.4140    5.1460  -18.1690 N   0  0  0  0  0  0  0  0  0  0  0  0
   -8.6430    5.9960  -19.1960 C   0  0  0  0  0  0  0  0  0  0  0  0
   -9.8450    6.6250  -19.4110 C   0  0  0  0  0  0  0  0  0  0  0  0
  -10.0950    7.6940  -20.7220 Cl  0  0  0  0  0  0  0  0  0  0  0  0
  -10.8330    6.3340  -18.5010 C   0  0  0  0  0  0  0  0  0  0  0  0
  -10.6630    5.4930  -17.4570 N   0  0  0  0  0  0  0  0  0  0  0  0
   -8.9100    2.5650  -16.6570 C   0  0  0  0  0  0  0  0  0  0  0  0
   -8.6560    1.6320  -15.4750 C   0  0  0  0  0  0  0  0  0  0  0  0
  -10.8300    0.4250  -12.8260 N   0  0  0  0  0  0  0  0  0  0  0  0
  -10.7870   -0.4980  -11.8430 C   0  0  0  0  0  0  0  0  0  0  0  0
  -11.9640   -0.8160  -11.1220 N   0  0  0  0  0  0  0  0  0  0  0  0
  -12.6350    0.0690  -10.1880 C   0  0  0  0  0  0  0  0  0  0  0  0
  -13.5080    1.1200  -10.8880 C   0  0  0  0  0  0  0  0  0  0  0  0
  -14.8880    0.7720  -10.8380 O   0  0  0  0  0  0  0  0  0  0  0  0
  -13.4270   -0.7680   -9.1310 C   0  0  0  0  0  0  0  0  0  0  0  0
  -12.8870    0.1930   -8.0530 C   0  0  0  0  0  0  0  0  0  0  0  0
  -11.7220    0.5170   -9.0080 C   0  0  0  0  0  0  0  0  0  0  0  0
   -9.6220   -1.1730  -11.5830 C   0  0  0  0  0  0  0  0  0  0  0  0
   -7.2035   -1.3182   -9.7975 H   0  0  0  0  0  0  0  0  0  0  0  0
   -6.9055   -2.9877  -10.3206 H   0  0  0  0  0  0  0  0  0  0  0  0
   -6.3906   -0.9288  -11.9908 H   0  0  0  0  0  0  0  0  0  0  0  0
   -7.0908   -2.4100  -12.6528 H   0  0  0  0  0  0  0  0  0  0  0  0
  -11.0510    2.9510  -13.4293 H   0  0  0  0  0  0  0  0  0  0  0  0
   -9.3114    3.4309  -13.4401 H   0  0  0  0  0  0  0  0  0  0  0  0
  -11.2954    3.6297  -15.7560 H   0  0  0  0  0  0  0  0  0  0  0  0
  -10.5540    4.9858  -14.8223 H   0  0  0  0  0  0  0  0  0  0  0  0
   -8.3271    4.3590  -15.6287 H   0  0  0  0  0  0  0  0  0  0  0  0
   -7.8203    6.1947  -19.8986 H   0  0  0  0  0  0  0  0  0  0  0  0
  -11.8155    6.8116  -18.6295 H   0  0  0  0  0  0  0  0  0  0  0  0
   -9.7701    2.1925  -17.2327 H   0  0  0  0  0  0  0  0  0  0  0  0
   -8.0096    2.5890  -17.2884 H   0  0  0  0  0  0  0  0  0  0  0  0
   -8.5512    0.6010  -15.8438 H   0  0  0  0  0  0  0  0  0  0  0  0
   -7.7343    1.9479  -14.9644 H   0  0  0  0  0  0  0  0  0  0  0  0
  -11.8380   -1.7600  -10.7390 H   0  0  0  0  0  0  0  0  0  0  0  0
  -13.3663    2.0907  -10.3904 H   0  0  0  0  0  0  0  0  0  0  0  0
  -13.2041    1.1721  -11.9439 H   0  0  0  0  0  0  0  0  0  0  0  0
  -15.2240    1.1020   -9.9780 H   0  0  0  0  0  0  0  0  0  0  0  0
  -14.5196   -0.7475   -9.2565 H   0  0  0  0  0  0  0  0  0  0  0  0
  -13.3006   -1.8575   -9.0469 H   0  0  0  0  0  0  0  0  0  0  0  0
  -13.5453    1.0453   -7.8288 H   0  0  0  0  0  0  0  0  0  0  0  0
  -12.7087   -0.1420   -7.0205 H   0  0  0  0  0  0  0  0  0  0  0  0
  -11.4326    1.5780   -9.0318 H   0  0  0  0  0  0  0  0  0  0  0  0
  -10.7215    0.0843   -8.8602 H   0  0  0  0  0  0  0  0  0  0  0  0
  1  2  2  0
  2  3  1  1
  3  4  1  0
  4  5  1  0
  5  6  2  0
  6  7  1  0
  7  8  1  0
  8  9  1  0
  9 10  1  0
 10 11  1  0
 11 12  1  0
 12 13  2  0
 13 14  1  0
 14 15  2  0
 15 16  1  0
 15 17  1  0
 17 18  2  0
 11 19  1  0
 19 20  1  0
  7 21  2  0
 21 22  1  0
 22 23  1  0
 23 24  1  0
 24 25  1  0
 25 26  1  0
 24 27  1  0
 27 28  1  0
 28 29  1  0
 22 30  2  0
 30  2  1  0
 30  5  1  0
 20  8  1  0
 29 24  1  0
 18 12  1  0
  3 31  1  0
  3 32  1  0
  4 33  1  0
  4 34  1  0
  9 35  1  0
  9 36  1  0
 10 37  1  0
 10 38  1  0
 11 39  1  0
 14 40  1  0
 17 41  1  0
 19 42  1  0
 19 43  1  0
 20 44  1  0
 20 45  1  0
 23 46  1  0
 25 47  1  0
 25 48  1  0
 26 49  1  0
 27 50  1  0
 27 51  1  0
 28 52  1  0
 28 53  1  0
 29 54  1  0
 29 55  1  0
M  END
>  <meeko>  (9) 
{"is_sidechain": false}

>  <vina_affinity_kcal_mol>  (9) 
-7.382

>  <pose_rank>  (9) 
9

$$$$

     RDKit          3D

 55 59  0  0  0  0  0  0  0  0999 V2000
   -6.5420   -4.1610  -13.4300 O   0  0  0  0  0  0  0  0  0  0  0  0
   -5.9460   -2.9960  -12.6940 S   0  0  0  0  0  4  0  0  0  0  0  0
   -7.1740   -2.3900  -11.4670 C   0  0  0  0  0  0  0  0  0  0  0  0
   -7.1970   -0.8650  -11.5930 C   0  0  0  0  0  0  0  0  0  0  0  0
   -6.9540   -0.5820  -13.0490 C   0  0  0  0  0  0  0  0  0  0  0  0
   -7.3200    0.5720  -13.6220 N   0  0  0  0  0  0  0  0  0  0  0  0
   -7.0330    0.7190  -14.9300 C   0  0  0  0  0  0  0  0  0  0  0  0
   -7.3750    1.9180  -15.5690 N   0  0  0  0  0  0  0  0  0  0  0  0
   -7.0200    1.9460  -16.9920 C   0  0  0  0  0  0  0  0  0  0  0  0
   -7.2240    3.3440  -17.5670 C   0  0  0  0  0  0  0  0  0  0  0  0
   -8.6430    3.8440  -17.2900 C   0  0  0  0  0  0  0  0  0  0  0  0
   -8.8620    5.2200  -17.8680 C   0  0  0  0  0  0  0  0  0  0  0  0
   -9.3760    6.1610  -17.0480 N   0  0  0  0  0  0  0  0  0  0  0  0
   -9.5730    7.3880  -17.5840 C   0  0  0  0  0  0  0  0  0  0  0  0
   -9.2810    7.7050  -18.8890 C   0  0  0  0  0  0  0  0  0  0  0  0
   -9.5440    9.2680  -19.5290 Cl  0  0  0  0  0  0  0  0  0  0  0  0
   -8.7600    6.6800  -19.6420 C   0  0  0  0  0  0  0  0  0  0  0  0
   -8.5420    5.4350  -19.1600 N   0  0  0  0  0  0  0  0  0  0  0  0
   -8.9200    3.8180  -15.7850 C   0  0  0  0  0  0  0  0  0  0  0  0
   -8.7080    2.4150  -15.2210 C   0  0  0  0  0  0  0  0  0  0  0  0
   -6.3990   -0.2410  -15.6450 N   0  0  0  0  0  0  0  0  0  0  0  0
   -6.0640   -1.4050  -15.0510 C   0  0  0  0  0  0  0  0  0  0  0  0
   -5.4060   -2.4130  -15.7960 N   0  0  0  0  0  0  0  0  0  0  0  0
   -4.0240   -2.3610  -16.2330 C   0  0  0  0  0  0  0  0  0  0  0  0
   -3.8160   -1.4260  -17.4330 C   0  0  0  0  0  0  0  0  0  0  0  0
   -5.0510   -1.0950  -18.0600 O   0  0  0  0  0  0  0  0  0  0  0  0
   -3.0920   -2.0120  -15.0270 C   0  0  0  0  0  0  0  0  0  0  0  0
   -2.1280   -3.1050  -15.5300 C   0  0  0  0  0  0  0  0  0  0  0  0
   -3.3320   -3.7560  -16.2390 C   0  0  0  0  0  0  0  0  0  0  0  0
   -6.3040   -1.5890  -13.7130 C   0  0  0  0  0  0  0  0  0  0  0  0
   -8.1686   -2.8047  -11.6880 H   0  0  0  0  0  0  0  0  0  0  0  0
   -6.9043   -2.7011  -10.4470 H   0  0  0  0  0  0  0  0  0  0  0  0
   -8.1742   -0.4676  -11.2814 H   0  0  0  0  0  0  0  0  0  0  0  0
   -6.4402   -0.3897  -10.9516 H   0  0  0  0  0  0  0  0  0  0  0  0
   -5.9647    1.6577  -17.1074 H   0  0  0  0  0  0  0  0  0  0  0  0
   -7.6676    1.2409  -17.5338 H   0  0  0  0  0  0  0  0  0  0  0  0
   -6.5022    4.0331  -17.1043 H   0  0  0  0  0  0  0  0  0  0  0  0
   -7.0710    3.3031  -18.6555 H   0  0  0  0  0  0  0  0  0  0  0  0
   -9.3562    3.1700  -17.7870 H   0  0  0  0  0  0  0  0  0  0  0  0
   -9.9901    8.1755  -16.9391 H   0  0  0  0  0  0  0  0  0  0  0  0
   -8.5067    6.8830  -20.6930 H   0  0  0  0  0  0  0  0  0  0  0  0
   -8.2371    4.5171  -15.2801 H   0  0  0  0  0  0  0  0  0  0  0  0
   -9.9653    4.1140  -15.6128 H   0  0  0  0  0  0  0  0  0  0  0  0
   -8.8082    2.4461  -14.1260 H   0  0  0  0  0  0  0  0  0  0  0  0
   -9.4627    1.7407  -15.6520 H   0  0  0  0  0  0  0  0  0  0  0  0
   -6.0410   -2.6940  -16.5520 H   0  0  0  0  0  0  0  0  0  0  0  0
   -3.3330   -0.5009  -17.0852 H   0  0  0  0  0  0  0  0  0  0  0  0
   -3.1850   -1.9459  -18.1689 H   0  0  0  0  0  0  0  0  0  0  0  0
   -5.1230   -1.6740  -18.8490 H   0  0  0  0  0  0  0  0  0  0  0  0
   -2.6789   -0.9927  -15.0483 H   0  0  0  0  0  0  0  0  0  0  0  0
   -3.4668   -2.0069  -13.9928 H   0  0  0  0  0  0  0  0  0  0  0  0
   -1.3391   -2.7437  -16.2062 H   0  0  0  0  0  0  0  0  0  0  0  0
   -1.4903   -3.6741  -14.8375 H   0  0  0  0  0  0  0  0  0  0  0  0
   -3.1120   -4.1520  -17.2414 H   0  0  0  0  0  0  0  0  0  0  0  0
   -3.8299   -4.6447  -15.8240 H   0  0  0  0  0  0  0  0  0  0  0  0
  1  2  2  0
  2  3  1  1
  3  4  1  0
  4  5  1  0
  5  6  2  0
  6  7  1  0
  7  8  1  0
  8  9  1  0
  9 10  1  0
 10 11  1  0
 11 12  1  0
 12 13  2  0
 13 14  1  0
 14 15  2  0
 15 16  1  0
 15 17  1  0
 17 18  2  0
 11 19  1  0
 19 20  1  0
  7 21  2  0
 21 22  1  0
 22 23  1  0
 23 24  1  0
 24 25  1  0
 25 26  1  0
 24 27  1  0
 27 28  1  0
 28 29  1  0
 22 30  2  0
 30  2  1  0
 30  5  1  0
 20  8  1  0
 29 24  1  0
 18 12  1  0
  3 31  1  0
  3 32  1  0
  4 33  1  0
  4 34  1  0
  9 35  1  0
  9 36  1  0
 10 37  1  0
 10 38  1  0
 11 39  1  0
 14 40  1  0
 17 41  1  0
 19 42  1  0
 19 43  1  0
 20 44  1  0
 20 45  1  0
 23 46  1  0
 25 47  1  0
 25 48  1  0
 26 49  1  0
 27 50  1  0
 27 51  1  0
 28 52  1  0
 28 53  1  0
 29 54  1  0
 29 55  1  0
M  END
>  <meeko>  (10) 
{"is_sidechain": false}

>  <vina_affinity_kcal_mol>  (10) 
-7.282

>  <pose_rank>  (10) 
10

$$$$
