
     RDKit          3D

 68 72  0  0  0  0  0  0  0  0999 V2000
  -42.5630  160.8990    0.0520 C   0  0  0  0  0  0  0  0  0  0  0  0
  -41.6590  160.0390    0.8960 C   0  0  0  0  0  0  0  0  0  0  0  0
  -42.2420  159.2490    1.9010 C   0  0  0  0  0  0  0  0  0  0  0  0
  -41.4600  158.4350    2.7210 C   0  0  0  0  0  0  0  0  0  0  0  0
  -40.0820  158.3950    2.5510 C   0  0  0  0  0  0  0  0  0  0  0  0
  -39.2120  157.6110    3.3390 N   0  0  0  0  0  0  0  0  0  0  0  0
  -37.8460  157.4630    3.1920 C   0  0  0  0  0  0  0  0  0  0  0  0
  -37.1240  158.0430    2.3900 O   0  0  0  0  0  0  0  0  0  0  0  0
  -37.2130  156.5200    4.1580 C   0  0  0  0  0  0  0  0  0  0  0  0
  -35.8370  156.5440    4.4170 C   0  0  0  0  0  0  0  0  0  0  0  0
  -35.2830  155.6380    5.3260 C   0  0  0  0  0  0  0  0  0  0  0  0
  -36.0940  154.7070    5.9930 C   0  0  0  0  0  0  0  0  0  0  0  0
  -35.4890  153.7320    6.9840 C   0  0  0  0  0  0  0  0  0  0  0  0
  -34.5500  152.7790    6.3610 N   0  0  0  0  0  0  0  0  0  0  0  0
  -35.1460  152.1040    5.1900 C   0  0  0  0  0  0  0  0  0  0  0  0
  -36.3330  151.1500    5.4970 C   0  0  0  0  0  0  0  0  0  0  0  0
  -36.3460  150.6230    6.8750 N   0  0  0  0  0  0  0  0  0  0  0  0
  -37.1330  149.4000    6.9700 C   0  0  0  0  0  0  0  0  0  0  0  0
  -34.9740  150.4330    7.3630 C   0  0  0  0  0  0  0  0  0  0  0  0
  -34.1400  151.7450    7.3420 C   0  0  0  0  0  0  0  0  0  0  0  0
  -37.4750  154.7050    5.7430 C   0  0  0  0  0  0  0  0  0  0  0  0
  -38.0300  155.6090    4.8350 C   0  0  0  0  0  0  0  0  0  0  0  0
  -39.4990  159.1860    1.5480 C   0  0  0  0  0  0  0  0  0  0  0  0
  -40.2590  160.0130    0.7030 C   0  0  0  0  0  0  0  0  0  0  0  0
  -39.6750  160.8100   -0.2930 N   0  0  0  0  0  0  0  0  0  0  0  0
  -39.3970  160.6420   -1.6460 C   0  0  0  0  0  0  0  0  0  0  0  0
  -39.3410  159.4350   -2.2230 N   0  0  0  0  0  0  0  0  0  0  0  0
  -39.0570  159.3920   -3.5350 C   0  0  0  0  0  0  0  0  0  0  0  0
  -38.8190  160.5080   -4.2960 C   0  0  0  0  0  0  0  0  0  0  0  0
  -38.8870  161.7180   -3.6370 C   0  0  0  0  0  0  0  0  0  0  0  0
  -38.6630  163.0130   -4.3040 C   0  0  0  0  0  0  0  0  0  0  0  0
  -38.3510  163.0940   -5.6700 C   0  0  0  0  0  0  0  0  0  0  0  0
  -38.1360  164.3280   -6.2820 C   0  0  0  0  0  0  0  0  0  0  0  0
  -38.2390  165.4700   -5.5080 C   0  0  0  0  0  0  0  0  0  0  0  0
  -38.5410  165.4530   -4.1940 N   0  0  0  0  0  0  0  0  0  0  0  0
  -38.7500  164.2350   -3.6340 C   0  0  0  0  0  0  0  0  0  0  0  0
  -39.1820  161.7850   -2.3180 N   0  0  0  0  0  0  0  0  0  0  0  0
  -43.2040  161.5088    0.7056 H   0  0  0  0  0  0  0  0  0  0  0  0
  -41.9535  161.5588   -0.5830 H   0  0  0  0  0  0  0  0  0  0  0  0
  -43.1916  160.2574   -0.5830 H   0  0  0  0  0  0  0  0  0  0  0  0
  -43.3325  159.2726    2.0436 H   0  0  0  0  0  0  0  0  0  0  0  0
  -41.9352  157.8243    3.5029 H   0  0  0  0  0  0  0  0  0  0  0  0
  -39.6420  157.1610    4.1380 H   0  0  0  0  0  0  0  0  0  0  0  0
  -35.1930  157.2748    3.9059 H   0  0  0  0  0  0  0  0  0  0  0  0
  -34.2005  155.6550    5.5204 H   0  0  0  0  0  0  0  0  0  0  0  0
  -34.9483  154.3043    7.7522 H   0  0  0  0  0  0  0  0  0  0  0  0
  -36.3152  153.1452    7.4119 H   0  0  0  0  0  0  0  0  0  0  0  0
  -35.5059  152.8804    4.4988 H   0  0  0  0  0  0  0  0  0  0  0  0
  -34.3507  151.4697    4.7715 H   0  0  0  0  0  0  0  0  0  0  0  0
  -37.2703  151.7010    5.3298 H   0  0  0  0  0  0  0  0  0  0  0  0
  -36.2223  150.2833    4.8287 H   0  0  0  0  0  0  0  0  0  0  0  0
  -37.2944  149.1492    8.0288 H   0  0  0  0  0  0  0  0  0  0  0  0
  -38.1046  149.5499    6.4765 H   0  0  0  0  0  0  0  0  0  0  0  0
  -36.5940  148.5779    6.4765 H   0  0  0  0  0  0  0  0  0  0  0  0
  -35.0172  150.0605    8.3971 H   0  0  0  0  0  0  0  0  0  0  0  0
  -34.4799  149.7157    6.6912 H   0  0  0  0  0  0  0  0  0  0  0  0
  -34.1998  152.1941    8.3444 H   0  0  0  0  0  0  0  0  0  0  0  0
  -33.1287  151.4399    7.0350 H   0  0  0  0  0  0  0  0  0  0  0  0
  -38.1241  153.9869    6.2655 H   0  0  0  0  0  0  0  0  0  0  0  0
  -39.1146  155.6046    4.6514 H   0  0  0  0  0  0  0  0  0  0  0  0
  -38.4070  159.1574    1.4188 H   0  0  0  0  0  0  0  0  0  0  0  0
  -39.3950  161.7420   -0.0290 H   0  0  0  0  0  0  0  0  0  0  0  0
  -39.0129  158.4085   -4.0258 H   0  0  0  0  0  0  0  0  0  0  0  0
  -38.5874  160.4420   -5.3693 H   0  0  0  0  0  0  0  0  0  0  0  0
  -38.2752  162.1721   -6.2653 H   0  0  0  0  0  0  0  0  0  0  0  0
  -37.8909  164.3920   -7.3524 H   0  0  0  0  0  0  0  0  0  0  0  0
  -38.0653  166.4434   -5.9900 H   0  0  0  0  0  0  0  0  0  0  0  0
  -39.0090  164.2080   -2.5653 H   0  0  0  0  0  0  0  0  0  0  0  0
  1  2  1  0
  2  3  1  0
  3  4  2  0
  4  5  1  0
  5  6  1  0
  6  7  1  0
  7  8  2  0
  7  9  1  0
  9 10  1  0
 10 11  2  0
 11 12  1  0
 12 13  1  0
 13 14  1  0
 14 15  1  0
 15 16  1  0
 16 17  1  0
 17 18  1  0
 17 19  1  0
 19 20  1  0
 12 21  2  0
 21 22  1  0
  5 23  2  0
 23 24  1  0
 24 25  1  0
 25 26  1  0
 26 27  2  0
 27 28  1  0
 28 29  2  0
 29 30  1  0
 30 31  1  0
 31 32  1  0
 32 33  2  0
 33 34  1  0
 34 35  2  0
 35 36  1  0
 30 37  2  0
 24  2  2  0
 37 26  1  0
 22  9  2  0
 36 31  2  0
 20 14  1  0
  1 38  1  0
  1 39  1  0
  1 40  1  0
  3 41  1  0
  4 42  1  0
  6 43  1  0
 10 44  1  0
 11 45  1  0
 13 46  1  0
 13 47  1  0
 15 48  1  0
 15 49  1  0
 16 50  1  0
 16 51  1  0
 18 52  1  0
 18 53  1  0
 18 54  1  0
 19 55  1  0
 19 56  1  0
 20 57  1  0
 20 58  1  0
 21 59  1  0
 22 60  1  0
 23 61  1  0
 25 62  1  0
 28 63  1  0
 29 64  1  0
 32 65  1  0
 33 66  1  0
 34 67  1  0
 36 68  1  0
M  END
>  <meeko>  (1) 
{"is_sidechain": false}

>  <vina_affinity_kcal_mol>  (1) 
-11.735

>  <pose_rank>  (1) 
1

$$$$

     RDKit          3D

 68 72  0  0  0  0  0  0  0  0999 V2000
  -41.1900  158.0890    2.9420 C   0  0  0  0  0  0  0  0  0  0  0  0
  -40.7380  158.7630    1.6730 C   0  0  0  0  0  0  0  0  0  0  0  0
  -41.6230  159.6540    1.0430 C   0  0  0  0  0  0  0  0  0  0  0  0
  -41.2670  160.3060   -0.1390 C   0  0  0  0  0  0  0  0  0  0  0  0
  -40.0220  160.0800   -0.7100 C   0  0  0  0  0  0  0  0  0  0  0  0
  -39.5810  160.6860   -1.9060 N   0  0  0  0  0  0  0  0  0  0  0  0
  -39.2410  162.0110   -2.1040 C   0  0  0  0  0  0  0  0  0  0  0  0
  -39.1910  162.8930   -1.2550 O   0  0  0  0  0  0  0  0  0  0  0  0
  -38.8580  162.3550   -3.5030 C   0  0  0  0  0  0  0  0  0  0  0  0
  -38.5670  161.3670   -4.4520 C   0  0  0  0  0  0  0  0  0  0  0  0
  -38.2080  161.7330   -5.7510 C   0  0  0  0  0  0  0  0  0  0  0  0
  -38.1430  163.0850   -6.1230 C   0  0  0  0  0  0  0  0  0  0  0  0
  -37.7600  163.4760   -7.5370 C   0  0  0  0  0  0  0  0  0  0  0  0
  -37.9820  162.3950   -8.5180 N   0  0  0  0  0  0  0  0  0  0  0  0
  -36.7100  161.8740   -9.0600 C   0  0  0  0  0  0  0  0  0  0  0  0
  -35.8970  162.8670   -9.9330 C   0  0  0  0  0  0  0  0  0  0  0  0
  -36.7050  163.9350  -10.5520 N   0  0  0  0  0  0  0  0  0  0  0  0
  -36.0330  164.5090  -11.7110 C   0  0  0  0  0  0  0  0  0  0  0  0
  -38.0450  163.4340  -10.8850 C   0  0  0  0  0  0  0  0  0  0  0  0
  -38.8090  162.8870   -9.6460 C   0  0  0  0  0  0  0  0  0  0  0  0
  -38.4580  164.0670   -5.1720 C   0  0  0  0  0  0  0  0  0  0  0  0
  -38.8180  163.7040   -3.8720 C   0  0  0  0  0  0  0  0  0  0  0  0
  -39.1380  159.1880   -0.0820 C   0  0  0  0  0  0  0  0  0  0  0  0
  -39.4640  158.5200    1.1110 C   0  0  0  0  0  0  0  0  0  0  0  0
  -38.5840  157.6210    1.7340 N   0  0  0  0  0  0  0  0  0  0  0  0
  -37.9930  157.5400    2.9900 C   0  0  0  0  0  0  0  0  0  0  0  0
  -37.5170  158.6150    3.6310 N   0  0  0  0  0  0  0  0  0  0  0  0
  -36.9590  158.4180    4.8360 C   0  0  0  0  0  0  0  0  0  0  0  0
  -36.8520  157.1860    5.4290 C   0  0  0  0  0  0  0  0  0  0  0  0
  -37.3580  156.1210    4.7130 C   0  0  0  0  0  0  0  0  0  0  0  0
  -37.3280  154.7320    5.2030 C   0  0  0  0  0  0  0  0  0  0  0  0
  -36.8190  154.4090    6.4710 C   0  0  0  0  0  0  0  0  0  0  0  0
  -36.7930  153.0880    6.9160 C   0  0  0  0  0  0  0  0  0  0  0  0
  -37.2830  152.1040    6.0750 C   0  0  0  0  0  0  0  0  0  0  0  0
  -37.7880  152.3560    4.8510 N   0  0  0  0  0  0  0  0  0  0  0  0
  -37.8040  153.6540    4.4550 C   0  0  0  0  0  0  0  0  0  0  0  0
  -37.9330  156.2990    3.5010 N   0  0  0  0  0  0  0  0  0  0  0  0
  -40.8134  158.6506    3.8096 H   0  0  0  0  0  0  0  0  0  0  0  0
  -42.2893  158.0624    2.9715 H   0  0  0  0  0  0  0  0  0  0  0  0
  -40.7974  157.0619    2.9715 H   0  0  0  0  0  0  0  0  0  0  0  0
  -42.6115  159.8407    1.4879 H   0  0  0  0  0  0  0  0  0  0  0  0
  -41.9737  160.9994   -0.6183 H   0  0  0  0  0  0  0  0  0  0  0  0
  -39.4430  160.0530   -2.6850 H   0  0  0  0  0  0  0  0  0  0  0  0
  -38.6212  160.3040   -4.1745 H   0  0  0  0  0  0  0  0  0  0  0  0
  -37.9736  160.9534   -6.4907 H   0  0  0  0  0  0  0  0  0  0  0  0
  -38.3619  164.3474   -7.8343 H   0  0  0  0  0  0  0  0  0  0  0  0
  -36.6831  163.7002   -7.5346 H   0  0  0  0  0  0  0  0  0  0  0  0
  -36.0781  161.5737   -8.2112 H   0  0  0  0  0  0  0  0  0  0  0  0
  -36.9844  161.0425   -9.7258 H   0  0  0  0  0  0  0  0  0  0  0  0
  -35.1326  163.3380   -9.2975 H   0  0  0  0  0  0  0  0  0  0  0  0
  -35.4660  162.2806  -10.7578 H   0  0  0  0  0  0  0  0  0  0  0  0
  -35.2369  165.1890  -11.3737 H   0  0  0  0  0  0  0  0  0  0  0  0
  -35.5941  163.7027  -12.3170 H   0  0  0  0  0  0  0  0  0  0  0  0
  -36.7608  165.0685  -12.3170 H   0  0  0  0  0  0  0  0  0  0  0  0
  -38.6290  164.2569  -11.3229 H   0  0  0  0  0  0  0  0  0  0  0  0
  -37.9207  162.6005  -11.5919 H   0  0  0  0  0  0  0  0  0  0  0  0
  -39.4468  163.6973   -9.2632 H   0  0  0  0  0  0  0  0  0  0  0  0
  -39.3561  162.0048  -10.0098 H   0  0  0  0  0  0  0  0  0  0  0  0
  -38.4213  165.1302   -5.4519 H   0  0  0  0  0  0  0  0  0  0  0  0
  -39.0709  164.4813   -3.1359 H   0  0  0  0  0  0  0  0  0  0  0  0
  -38.1548  159.0054   -0.5402 H   0  0  0  0  0  0  0  0  0  0  0  0
  -38.3020  156.8120    1.2020 H   0  0  0  0  0  0  0  0  0  0  0  0
  -36.5665  159.2917    5.3768 H   0  0  0  0  0  0  0  0  0  0  0  0
  -36.3894  157.0547    6.4183 H   0  0  0  0  0  0  0  0  0  0  0  0
  -36.4357  155.2087    7.1219 H   0  0  0  0  0  0  0  0  0  0  0  0
  -36.3937  152.8345    7.9091 H   0  0  0  0  0  0  0  0  0  0  0  0
  -37.2590  151.0611    6.4240 H   0  0  0  0  0  0  0  0  0  0  0  0
  -38.2266  153.8745    3.4636 H   0  0  0  0  0  0  0  0  0  0  0  0
  1  2  1  0
  2  3  1  0
  3  4  2  0
  4  5  1  0
  5  6  1  0
  6  7  1  0
  7  8  2  0
  7  9  1  0
  9 10  1  0
 10 11  2  0
 11 12  1  0
 12 13  1  0
 13 14  1  0
 14 15  1  0
 15 16  1  0
 16 17  1  0
 17 18  1  0
 17 19  1  0
 19 20  1  0
 12 21  2  0
 21 22  1  0
  5 23  2  0
 23 24  1  0
 24 25  1  0
 25 26  1  0
 26 27  2  0
 27 28  1  0
 28 29  2  0
 29 30  1  0
 30 31  1  0
 31 32  1  0
 32 33  2  0
 33 34  1  0
 34 35  2  0
 35 36  1  0
 30 37  2  0
 24  2  2  0
 37 26  1  0
 22  9  2  0
 36 31  2  0
 20 14  1  0
  1 38  1  0
  1 39  1  0
  1 40  1  0
  3 41  1  0
  4 42  1  0
  6 43  1  0
 10 44  1  0
 11 45  1  0
 13 46  1  0
 13 47  1  0
 15 48  1  0
 15 49  1  0
 16 50  1  0
 16 51  1  0
 18 52  1  0
 18 53  1  0
 18 54  1  0
 19 55  1  0
 19 56  1  0
 20 57  1  0
 20 58  1  0
 21 59  1  0
 22 60  1  0
 23 61  1  0
 25 62  1  0
 28 63  1  0
 29 64  1  0
 32 65  1  0
 33 66  1  0
 34 67  1  0
 36 68  1  0
M  END
>  <meeko>  (2) 
{"is_sidechain": false}

>  <vina_affinity_kcal_mol>  (2) 
-11.357

>  <pose_rank>  (2) 
2

$$$$

     RDKit          3D

 68 72  0  0  0  0  0  0  0  0999 V2000
  -42.4100  160.7370   -0.4470 C   0  0  0  0  0  0  0  0  0  0  0  0
  -41.5370  159.9100    0.4600 C   0  0  0  0  0  0  0  0  0  0  0  0
  -42.0960  159.4200    1.6530 C   0  0  0  0  0  0  0  0  0  0  0  0
  -41.3390  158.6530    2.5400 C   0  0  0  0  0  0  0  0  0  0  0  0
  -40.0130  158.3610    2.2500 C   0  0  0  0  0  0  0  0  0  0  0  0
  -39.1700  157.6030    3.0910 N   0  0  0  0  0  0  0  0  0  0  0  0
  -37.7890  157.6220    3.1370 C   0  0  0  0  0  0  0  0  0  0  0  0
  -37.0410  158.3550    2.5030 O   0  0  0  0  0  0  0  0  0  0  0  0
  -37.1840  156.6620    4.1050 C   0  0  0  0  0  0  0  0  0  0  0  0
  -35.8160  156.6810    4.4050 C   0  0  0  0  0  0  0  0  0  0  0  0
  -35.2890  155.7610    5.3140 C   0  0  0  0  0  0  0  0  0  0  0  0
  -36.1190  154.8180    5.9420 C   0  0  0  0  0  0  0  0  0  0  0  0
  -35.5430  153.8270    6.9340 C   0  0  0  0  0  0  0  0  0  0  0  0
  -34.5680  152.8990    6.3270 N   0  0  0  0  0  0  0  0  0  0  0  0
  -35.1520  152.1500    5.1950 C   0  0  0  0  0  0  0  0  0  0  0  0
  -36.2830  151.1510    5.5630 C   0  0  0  0  0  0  0  0  0  0  0  0
  -36.2420  150.6770    6.9600 N   0  0  0  0  0  0  0  0  0  0  0  0
  -36.9640  149.4210    7.1170 C   0  0  0  0  0  0  0  0  0  0  0  0
  -34.8530  150.5750    7.4260 C   0  0  0  0  0  0  0  0  0  0  0  0
  -34.0870  151.9260    7.3370 C   0  0  0  0  0  0  0  0  0  0  0  0
  -37.4920  154.8210    5.6520 C   0  0  0  0  0  0  0  0  0  0  0  0
  -38.0210  155.7400    4.7430 C   0  0  0  0  0  0  0  0  0  0  0  0
  -39.4540  158.8520    1.0590 C   0  0  0  0  0  0  0  0  0  0  0  0
  -40.1900  159.6230    0.1430 C   0  0  0  0  0  0  0  0  0  0  0  0
  -39.6290  160.1220   -1.0420 N   0  0  0  0  0  0  0  0  0  0  0  0
  -39.2760  161.3870   -1.5020 C   0  0  0  0  0  0  0  0  0  0  0  0
  -39.1640  162.4430   -0.6880 N   0  0  0  0  0  0  0  0  0  0  0  0
  -38.8250  163.6170   -1.2430 C   0  0  0  0  0  0  0  0  0  0  0  0
  -38.5970  163.7830   -2.5860 C   0  0  0  0  0  0  0  0  0  0  0  0
  -38.7340  162.6550   -3.3680 C   0  0  0  0  0  0  0  0  0  0  0  0
  -38.5230  162.6550   -4.8260 C   0  0  0  0  0  0  0  0  0  0  0  0
  -38.4320  163.8490   -5.5580 C   0  0  0  0  0  0  0  0  0  0  0  0
  -38.2380  163.8290   -6.9390 C   0  0  0  0  0  0  0  0  0  0  0  0
  -38.1360  162.6020   -7.5680 C   0  0  0  0  0  0  0  0  0  0  0  0
  -38.2090  161.4240   -6.9170 N   0  0  0  0  0  0  0  0  0  0  0  0
  -38.3920  161.4820   -5.5730 C   0  0  0  0  0  0  0  0  0  0  0  0
  -39.0650  161.4600   -2.8280 N   0  0  0  0  0  0  0  0  0  0  0  0
  -43.0759  161.3678    0.1602 H   0  0  0  0  0  0  0  0  0  0  0  0
  -41.7782  161.3756   -1.0818 H   0  0  0  0  0  0  0  0  0  0  0  0
  -43.0135  160.0715   -1.0818 H   0  0  0  0  0  0  0  0  0  0  0  0
  -43.1462  159.6445    1.8912 H   0  0  0  0  0  0  0  0  0  0  0  0
  -41.7933  158.2796    3.4696 H   0  0  0  0  0  0  0  0  0  0  0  0
  -39.6470  157.0310    3.7780 H   0  0  0  0  0  0  0  0  0  0  0  0
  -35.1574  157.4198    3.9251 H   0  0  0  0  0  0  0  0  0  0  0  0
  -34.2127  155.7751    5.5405 H   0  0  0  0  0  0  0  0  0  0  0  0
  -35.0404  154.3870    7.7364 H   0  0  0  0  0  0  0  0  0  0  0  0
  -36.3786  153.2214    7.3149 H   0  0  0  0  0  0  0  0  0  0  0  0
  -35.5639  152.8801    4.4828 H   0  0  0  0  0  0  0  0  0  0  0  0
  -34.3340  151.5401    4.7839 H   0  0  0  0  0  0  0  0  0  0  0  0
  -37.2499  151.6481    5.3958 H   0  0  0  0  0  0  0  0  0  0  0  0
  -36.1422  150.2659    4.9252 H   0  0  0  0  0  0  0  0  0  0  0  0
  -37.0900  149.2018    8.1876 H   0  0  0  0  0  0  0  0  0  0  0  0
  -37.9522  149.5041    6.6410 H   0  0  0  0  0  0  0  0  0  0  0  0
  -36.3949  148.6089    6.6410 H   0  0  0  0  0  0  0  0  0  0  0  0
  -34.8575  150.2418    8.4743 H   0  0  0  0  0  0  0  0  0  0  0  0
  -34.3360  149.8572    6.7722 H   0  0  0  0  0  0  0  0  0  0  0  0
  -34.1497  152.4103    8.3227 H   0  0  0  0  0  0  0  0  0  0  0  0
  -33.0679  151.6601    7.0197 H   0  0  0  0  0  0  0  0  0  0  0  0
  -38.1559  154.0948    6.1438 H   0  0  0  0  0  0  0  0  0  0  0  0
  -39.0998  155.7389    4.5278 H   0  0  0  0  0  0  0  0  0  0  0  0
  -38.4013  158.6248    0.8348 H   0  0  0  0  0  0  0  0  0  0  0  0
  -39.3790  159.4500   -1.7500 H   0  0  0  0  0  0  0  0  0  0  0  0
  -38.7245  164.4934   -0.5859 H   0  0  0  0  0  0  0  0  0  0  0  0
  -38.3212  164.7582   -3.0137 H   0  0  0  0  0  0  0  0  0  0  0  0
  -38.5148  164.8135   -5.0356 H   0  0  0  0  0  0  0  0  0  0  0  0
  -38.1680  164.7649   -7.5127 H   0  0  0  0  0  0  0  0  0  0  0  0
  -37.9874  162.5863   -8.6578 H   0  0  0  0  0  0  0  0  0  0  0  0
  -38.4411  160.5277   -5.0281 H   0  0  0  0  0  0  0  0  0  0  0  0
  1  2  1  0
  2  3  1  0
  3  4  2  0
  4  5  1  0
  5  6  1  0
  6  7  1  0
  7  8  2  0
  7  9  1  0
  9 10  1  0
 10 11  2  0
 11 12  1  0
 12 13  1  0
 13 14  1  0
 14 15  1  0
 15 16  1  0
 16 17  1  0
 17 18  1  0
 17 19  1  0
 19 20  1  0
 12 21  2  0
 21 22  1  0
  5 23  2  0
 23 24  1  0
 24 25  1  0
 25 26  1  0
 26 27  2  0
 27 28  1  0
 28 29  2  0
 29 30  1  0
 30 31  1  0
 31 32  1  0
 32 33  2  0
 33 34  1  0
 34 35  2  0
 35 36  1  0
 30 37  2  0
 24  2  2  0
 37 26  1  0
 22  9  2  0
 36 31  2  0
 20 14  1  0
  1 38  1  0
  1 39  1  0
  1 40  1  0
  3 41  1  0
  4 42  1  0
  6 43  1  0
 10 44  1  0
 11 45  1  0
 13 46  1  0
 13 47  1  0
 15 48  1  0
 15 49  1  0
 16 50  1  0
 16 51  1  0
 18 52  1  0
 18 53  1  0
 18 54  1  0
 19 55  1  0
 19 56  1  0
 20 57  1  0
 20 58  1  0
 21 59  1  0
 22 60  1  0
 23 61  1  0
 25 62  1  0
 28 63  1  0
 29 64  1  0
 32 65  1  0
 33 66  1  0
 34 67  1  0
 36 68  1  0
M  END
>  <meeko>  (3) 
{"is_sidechain": false}

>  <vina_affinity_kcal_mol>  (3) 
-11.065

>  <pose_rank>  (3) 
3

$$$$

     RDKit          3D

 68 72  0  0  0  0  0  0  0  0999 V2000
  -36.7190  155.7570    7.7260 C   0  0  0  0  0  0  0  0  0  0  0  0
  -36.9000  156.3260    6.3420 C   0  0  0  0  0  0  0  0  0  0  0  0
  -36.4410  157.6310    6.0960 C   0  0  0  0  0  0  0  0  0  0  0  0
  -36.5840  158.2180    4.8380 C   0  0  0  0  0  0  0  0  0  0  0  0
  -37.1870  157.5120    3.8060 C   0  0  0  0  0  0  0  0  0  0  0  0
  -37.3840  158.0280    2.5070 N   0  0  0  0  0  0  0  0  0  0  0  0
  -38.5850  158.2300    1.8530 C   0  0  0  0  0  0  0  0  0  0  0  0
  -39.7090  158.0630    2.3100 O   0  0  0  0  0  0  0  0  0  0  0  0
  -38.4590  158.7460    0.4600 C   0  0  0  0  0  0  0  0  0  0  0  0
  -38.5700  157.9020   -0.6520 C   0  0  0  0  0  0  0  0  0  0  0  0
  -38.4400  158.4270   -1.9400 C   0  0  0  0  0  0  0  0  0  0  0  0
  -38.2060  159.7970   -2.1360 C   0  0  0  0  0  0  0  0  0  0  0  0
  -38.0730  160.3620   -3.5370 C   0  0  0  0  0  0  0  0  0  0  0  0
  -39.2990  161.0360   -4.0090 N   0  0  0  0  0  0  0  0  0  0  0  0
  -39.2520  161.3100   -5.4600 C   0  0  0  0  0  0  0  0  0  0  0  0
  -38.1850  162.3420   -5.9140 C   0  0  0  0  0  0  0  0  0  0  0  0
  -37.7690  163.2880   -4.8610 N   0  0  0  0  0  0  0  0  0  0  0  0
  -37.1840  164.4960   -5.4300 C   0  0  0  0  0  0  0  0  0  0  0  0
  -38.8960  163.5900   -3.9700 C   0  0  0  0  0  0  0  0  0  0  0  0
  -39.4860  162.3210   -3.2930 C   0  0  0  0  0  0  0  0  0  0  0  0
  -38.1170  160.6380   -1.0160 C   0  0  0  0  0  0  0  0  0  0  0  0
  -38.2480  160.1160    0.2720 C   0  0  0  0  0  0  0  0  0  0  0  0
  -37.6490  156.2090    4.0520 C   0  0  0  0  0  0  0  0  0  0  0  0
  -37.5150  155.5880    5.3060 C   0  0  0  0  0  0  0  0  0  0  0  0
  -37.9850  154.2890    5.5550 N   0  0  0  0  0  0  0  0  0  0  0  0
  -37.4030  153.0260    5.5870 C   0  0  0  0  0  0  0  0  0  0  0  0
  -36.0760  152.8460    5.5950 N   0  0  0  0  0  0  0  0  0  0  0  0
  -35.6260  151.5810    5.6180 C   0  0  0  0  0  0  0  0  0  0  0  0
  -36.4480  150.4830    5.6290 C   0  0  0  0  0  0  0  0  0  0  0  0
  -37.8030  150.7400    5.6160 C   0  0  0  0  0  0  0  0  0  0  0  0
  -38.8250  149.6790    5.6290 C   0  0  0  0  0  0  0  0  0  0  0  0
  -38.7710  148.5930    4.7420 C   0  0  0  0  0  0  0  0  0  0  0  0
  -39.7510  147.6010    4.7640 C   0  0  0  0  0  0  0  0  0  0  0  0
  -40.7770  147.7160    5.6850 C   0  0  0  0  0  0  0  0  0  0  0  0
  -40.8770  148.7320    6.5650 N   0  0  0  0  0  0  0  0  0  0  0  0
  -39.9020  149.6750    6.5180 C   0  0  0  0  0  0  0  0  0  0  0  0
  -38.2790  152.0070    5.6020 N   0  0  0  0  0  0  0  0  0  0  0  0
  -36.9636  156.5260    8.4735 H   0  0  0  0  0  0  0  0  0  0  0  0
  -37.3865  154.8926    7.8573 H   0  0  0  0  0  0  0  0  0  0  0  0
  -35.6748  155.4371    7.8573 H   0  0  0  0  0  0  0  0  0  0  0  0
  -35.9617  158.1986    6.9073 H   0  0  0  0  0  0  0  0  0  0  0  0
  -36.2186  159.2409    4.6641 H   0  0  0  0  0  0  0  0  0  0  0  0
  -36.5440  158.3420    2.0350 H   0  0  0  0  0  0  0  0  0  0  0  0
  -38.7592  156.8275   -0.5115 H   0  0  0  0  0  0  0  0  0  0  0  0
  -38.5219  157.7593   -2.8103 H   0  0  0  0  0  0  0  0  0  0  0  0
  -37.2485  161.0901   -3.5439 H   0  0  0  0  0  0  0  0  0  0  0  0
  -37.8820  159.5168   -4.2146 H   0  0  0  0  0  0  0  0  0  0  0  0
  -39.0464  160.3611   -5.9770 H   0  0  0  0  0  0  0  0  0  0  0  0
  -40.2262  161.7532   -5.7140 H   0  0  0  0  0  0  0  0  0  0  0  0
  -37.2954  161.7912   -6.2534 H   0  0  0  0  0  0  0  0  0  0  0  0
  -38.6465  162.9419   -6.7122 H   0  0  0  0  0  0  0  0  0  0  0  0
  -36.8604  165.1641   -4.6183 H   0  0  0  0  0  0  0  0  0  0  0  0
  -36.3167  164.2262   -6.0505 H   0  0  0  0  0  0  0  0  0  0  0  0
  -37.9334  165.0091   -6.0505 H   0  0  0  0  0  0  0  0  0  0  0  0
  -38.5488  164.2778   -3.1850 H   0  0  0  0  0  0  0  0  0  0  0  0
  -39.6917  164.0385   -4.5830 H   0  0  0  0  0  0  0  0  0  0  0  0
  -39.0164  162.2224   -2.3032 H   0  0  0  0  0  0  0  0  0  0  0  0
  -40.5736  162.4842   -3.2714 H   0  0  0  0  0  0  0  0  0  0  0  0
  -37.9429  161.7153   -1.1540 H   0  0  0  0  0  0  0  0  0  0  0  0
  -38.1850  160.7849    1.1430 H   0  0  0  0  0  0  0  0  0  0  0  0
  -38.1329  155.6545    3.2345 H   0  0  0  0  0  0  0  0  0  0  0  0
  -38.9590  154.1920    5.7980 H   0  0  0  0  0  0  0  0  0  0  0  0
  -34.5385  151.4163    5.6286 H   0  0  0  0  0  0  0  0  0  0  0  0
  -36.0499  149.4577    5.6471 H   0  0  0  0  0  0  0  0  0  0  0  0
  -37.9445  148.5232    4.0195 H   0  0  0  0  0  0  0  0  0  0  0  0
  -39.7094  146.7502    4.0680 H   0  0  0  0  0  0  0  0  0  0  0  0
  -41.5528  146.9364    5.6999 H   0  0  0  0  0  0  0  0  0  0  0  0
  -39.9653  150.5035    7.2388 H   0  0  0  0  0  0  0  0  0  0  0  0
  1  2  1  0
  2  3  1  0
  3  4  2  0
  4  5  1  0
  5  6  1  0
  6  7  1  0
  7  8  2  0
  7  9  1  0
  9 10  1  0
 10 11  2  0
 11 12  1  0
 12 13  1  0
 13 14  1  0
 14 15  1  0
 15 16  1  0
 16 17  1  0
 17 18  1  0
 17 19  1  0
 19 20  1  0
 12 21  2  0
 21 22  1  0
  5 23  2  0
 23 24  1  0
 24 25  1  0
 25 26  1  0
 26 27  2  0
 27 28  1  0
 28 29  2  0
 29 30  1  0
 30 31  1  0
 31 32  1  0
 32 33  2  0
 33 34  1  0
 34 35  2  0
 35 36  1  0
 30 37  2  0
 24  2  2  0
 37 26  1  0
 22  9  2  0
 36 31  2  0
 20 14  1  0
  1 38  1  0
  1 39  1  0
  1 40  1  0
  3 41  1  0
  4 42  1  0
  6 43  1  0
 10 44  1  0
 11 45  1  0
 13 46  1  0
 13 47  1  0
 15 48  1  0
 15 49  1  0
 16 50  1  0
 16 51  1  0
 18 52  1  0
 18 53  1  0
 18 54  1  0
 19 55  1  0
 19 56  1  0
 20 57  1  0
 20 58  1  0
 21 59  1  0
 22 60  1  0
 23 61  1  0
 25 62  1  0
 28 63  1  0
 29 64  1  0
 32 65  1  0
 33 66  1  0
 34 67  1  0
 36 68  1  0
M  END
>  <meeko>  (4) 
{"is_sidechain": false}

>  <vina_affinity_kcal_mol>  (4) 
-10.198

>  <pose_rank>  (4) 
4

$$$$

     RDKit          3D

 68 72  0  0  0  0  0  0  0  0999 V2000
  -36.7060  158.9230    5.5350 C   0  0  0  0  0  0  0  0  0  0  0  0
  -36.9900  157.4790    5.2120 C   0  0  0  0  0  0  0  0  0  0  0  0
  -36.7090  156.5130    6.1930 C   0  0  0  0  0  0  0  0  0  0  0  0
  -36.9440  155.1580    5.9550 C   0  0  0  0  0  0  0  0  0  0  0  0
  -37.4630  154.7450    4.7350 C   0  0  0  0  0  0  0  0  0  0  0  0
  -37.7230  153.3980    4.4030 N   0  0  0  0  0  0  0  0  0  0  0  0
  -38.0470  152.3660    5.2630 C   0  0  0  0  0  0  0  0  0  0  0  0
  -38.2380  152.4460    6.4700 O   0  0  0  0  0  0  0  0  0  0  0  0
  -38.2130  151.0370    4.6080 C   0  0  0  0  0  0  0  0  0  0  0  0
  -39.1730  150.8230    3.6100 C   0  0  0  0  0  0  0  0  0  0  0  0
  -39.2990  149.5600    3.0250 C   0  0  0  0  0  0  0  0  0  0  0  0
  -38.4670  148.5010    3.4210 C   0  0  0  0  0  0  0  0  0  0  0  0
  -38.6040  147.1340    2.7770 C   0  0  0  0  0  0  0  0  0  0  0  0
  -37.3710  146.6860    2.1010 N   0  0  0  0  0  0  0  0  0  0  0  0
  -36.9900  147.5890    0.9950 C   0  0  0  0  0  0  0  0  0  0  0  0
  -37.9650  147.6190   -0.2130 C   0  0  0  0  0  0  0  0  0  0  0  0
  -38.7870  146.4020   -0.3600 N   0  0  0  0  0  0  0  0  0  0  0  0
  -39.2890  146.2590   -1.7210 C   0  0  0  0  0  0  0  0  0  0  0  0
  -38.0330  145.2200    0.0760 C   0  0  0  0  0  0  0  0  0  0  0  0
  -37.5540  145.3200    1.5520 C   0  0  0  0  0  0  0  0  0  0  0  0
  -37.4950  148.7310    4.4060 C   0  0  0  0  0  0  0  0  0  0  0  0
  -37.3670  149.9920    4.9920 C   0  0  0  0  0  0  0  0  0  0  0  0
  -37.7420  155.7110    3.7540 C   0  0  0  0  0  0  0  0  0  0  0  0
  -37.5220  157.0830    3.9640 C   0  0  0  0  0  0  0  0  0  0  0  0
  -37.7910  158.0470    2.9810 N   0  0  0  0  0  0  0  0  0  0  0  0
  -38.9380  158.4850    2.3260 C   0  0  0  0  0  0  0  0  0  0  0  0
  -40.1580  158.3820    2.8670 N   0  0  0  0  0  0  0  0  0  0  0  0
  -41.1950  158.8300    2.1410 C   0  0  0  0  0  0  0  0  0  0  0  0
  -41.0640  159.3740    0.8880 C   0  0  0  0  0  0  0  0  0  0  0  0
  -39.7800  159.4440    0.3880 C   0  0  0  0  0  0  0  0  0  0  0  0
  -39.4610  160.0020   -0.9370 C   0  0  0  0  0  0  0  0  0  0  0  0
  -38.9610  159.1990   -1.9740 C   0  0  0  0  0  0  0  0  0  0  0  0
  -38.6580  159.7460   -3.2210 C   0  0  0  0  0  0  0  0  0  0  0  0
  -38.8650  161.1010   -3.4090 C   0  0  0  0  0  0  0  0  0  0  0  0
  -39.3470  161.9190   -2.4520 N   0  0  0  0  0  0  0  0  0  0  0  0
  -39.6370  161.3510   -1.2540 C   0  0  0  0  0  0  0  0  0  0  0  0
  -38.7200  159.0080    1.1080 N   0  0  0  0  0  0  0  0  0  0  0  0
  -36.6798  159.0563    6.6266 H   0  0  0  0  0  0  0  0  0  0  0  0
  -35.7342  159.2102    5.1071 H   0  0  0  0  0  0  0  0  0  0  0  0
  -37.4967  159.5568    5.1071 H   0  0  0  0  0  0  0  0  0  0  0  0
  -36.2977  156.8294    7.1629 H   0  0  0  0  0  0  0  0  0  0  0  0
  -36.7178  154.4161    6.7350 H   0  0  0  0  0  0  0  0  0  0  0  0
  -37.7310  153.1920    3.4110 H   0  0  0  0  0  0  0  0  0  0  0  0
  -39.8261  151.6473    3.2876 H   0  0  0  0  0  0  0  0  0  0  0  0
  -40.0579  149.3941    2.2462 H   0  0  0  0  0  0  0  0  0  0  0  0
  -38.8602  146.4032    3.5582 H   0  0  0  0  0  0  0  0  0  0  0  0
  -39.3892  147.2100    2.0103 H   0  0  0  0  0  0  0  0  0  0  0  0
  -36.9212  148.6095    1.3998 H   0  0  0  0  0  0  0  0  0  0  0  0
  -36.0382  147.2005    0.6038 H   0  0  0  0  0  0  0  0  0  0  0  0
  -38.6406  148.4782   -0.0893 H   0  0  0  0  0  0  0  0  0  0  0  0
  -37.3436  147.6908   -1.1178 H   0  0  0  0  0  0  0  0  0  0  0  0
  -40.3466  145.9578   -1.6920 H   0  0  0  0  0  0  0  0  0  0  0  0
  -39.1957  147.2195   -2.2490 H   0  0  0  0  0  0  0  0  0  0  0  0
  -38.7036  145.4919   -2.2490 H   0  0  0  0  0  0  0  0  0  0  0  0
  -38.6784  144.3349   -0.0246 H   0  0  0  0  0  0  0  0  0  0  0  0
  -37.1372  145.1468   -0.5581 H   0  0  0  0  0  0  0  0  0  0  0  0
  -38.2967  144.8052    2.1792 H   0  0  0  0  0  0  0  0  0  0  0  0
  -36.5516  144.8671    1.5624 H   0  0  0  0  0  0  0  0  0  0  0  0
  -36.8295  147.9129    4.7187 H   0  0  0  0  0  0  0  0  0  0  0  0
  -36.5974  150.1640    5.7589 H   0  0  0  0  0  0  0  0  0  0  0  0
  -38.1475  155.3814    2.7860 H   0  0  0  0  0  0  0  0  0  0  0  0
  -37.0140  158.5990    2.6540 H   0  0  0  0  0  0  0  0  0  0  0  0
  -42.2036  158.7570    2.5739 H   0  0  0  0  0  0  0  0  0  0  0  0
  -41.9320  159.7332    0.3157 H   0  0  0  0  0  0  0  0  0  0  0  0
  -38.8060  158.1238   -1.8010 H   0  0  0  0  0  0  0  0  0  0  0  0
  -38.2650  159.1168   -4.0332 H   0  0  0  0  0  0  0  0  0  0  0  0
  -38.6236  161.5336   -4.3911 H   0  0  0  0  0  0  0  0  0  0  0  0
  -40.0435  162.0059   -0.4692 H   0  0  0  0  0  0  0  0  0  0  0  0
  1  2  1  0
  2  3  1  0
  3  4  2  0
  4  5  1  0
  5  6  1  0
  6  7  1  0
  7  8  2  0
  7  9  1  0
  9 10  1  0
 10 11  2  0
 11 12  1  0
 12 13  1  0
 13 14  1  0
 14 15  1  0
 15 16  1  0
 16 17  1  0
 17 18  1  0
 17 19  1  0
 19 20  1  0
 12 21  2  0
 21 22  1  0
  5 23  2  0
 23 24  1  0
 24 25  1  0
 25 26  1  0
 26 27  2  0
 27 28  1  0
 28 29  2  0
 29 30  1  0
 30 31  1  0
 31 32  1  0
 32 33  2  0
 33 34  1  0
 34 35  2  0
 35 36  1  0
 30 37  2  0
 24  2  2  0
 37 26  1  0
 22  9  2  0
 36 31  2  0
 20 14  1  0
  1 38  1  0
  1 39  1  0
  1 40  1  0
  3 41  1  0
  4 42  1  0
  6 43  1  0
 10 44  1  0
 11 45  1  0
 13 46  1  0
 13 47  1  0
 15 48  1  0
 15 49  1  0
 16 50  1  0
 16 51  1  0
 18 52  1  0
 18 53  1  0
 18 54  1  0
 19 55  1  0
 19 56  1  0
 20 57  1  0
 20 58  1  0
 21 59  1  0
 22 60  1  0
 23 61  1  0
 25 62  1  0
 28 63  1  0
 29 64  1  0
 32 65  1  0
 33 66  1  0
 34 67  1  0
 36 68  1  0
M  END
>  <meeko>  (5) 
{"is_sidechain": false}

>  <vina_affinity_kcal_mol>  (5) 
-9.989

>  <pose_rank>  (5) 
5

$$$$

     RDKit          3D

 68 72  0  0  0  0  0  0  0  0999 V2000
  -38.8960  165.2030   -4.8800 C   0  0  0  0  0  0  0  0  0  0  0  0
  -38.8410  164.1160   -3.8390 C   0  0  0  0  0  0  0  0  0  0  0  0
  -38.7150  164.4920   -2.4910 C   0  0  0  0  0  0  0  0  0  0  0  0
  -38.6520  163.5340   -1.4790 C   0  0  0  0  0  0  0  0  0  0  0  0
  -38.7150  162.1830   -1.7950 C   0  0  0  0  0  0  0  0  0  0  0  0
  -38.6480  161.1450   -0.8410 N   0  0  0  0  0  0  0  0  0  0  0  0
  -39.6710  160.6700   -0.0410 C   0  0  0  0  0  0  0  0  0  0  0  0
  -40.8460  161.0160   -0.0640 O   0  0  0  0  0  0  0  0  0  0  0  0
  -39.2710  159.5920    0.9080 C   0  0  0  0  0  0  0  0  0  0  0  0
  -38.0280  158.9540    0.8160 C   0  0  0  0  0  0  0  0  0  0  0  0
  -37.6940  157.9440    1.7230 C   0  0  0  0  0  0  0  0  0  0  0  0
  -38.5900  157.5660    2.7350 C   0  0  0  0  0  0  0  0  0  0  0  0
  -38.2200  156.4750    3.7210 C   0  0  0  0  0  0  0  0  0  0  0  0
  -37.8240  156.9990    5.0440 N   0  0  0  0  0  0  0  0  0  0  0  0
  -36.9060  158.1510    4.9270 C   0  0  0  0  0  0  0  0  0  0  0  0
  -35.5060  157.8350    4.3320 C   0  0  0  0  0  0  0  0  0  0  0  0
  -35.0850  156.4290    4.4840 N   0  0  0  0  0  0  0  0  0  0  0  0
  -33.6380  156.2930    4.3820 C   0  0  0  0  0  0  0  0  0  0  0  0
  -35.6030  155.8730    5.7410 C   0  0  0  0  0  0  0  0  0  0  0  0
  -37.1530  155.9400    5.8360 C   0  0  0  0  0  0  0  0  0  0  0  0
  -39.8250  158.2260    2.8320 C   0  0  0  0  0  0  0  0  0  0  0  0
  -40.1600  159.2350    1.9270 C   0  0  0  0  0  0  0  0  0  0  0  0
  -38.8390  161.8060   -3.1420 C   0  0  0  0  0  0  0  0  0  0  0  0
  -38.9090  162.7470   -4.1840 C   0  0  0  0  0  0  0  0  0  0  0  0
  -39.0230  162.3700   -5.5310 N   0  0  0  0  0  0  0  0  0  0  0  0
  -38.1390  162.2800   -6.6020 C   0  0  0  0  0  0  0  0  0  0  0  0
  -37.2740  161.2670   -6.7370 N   0  0  0  0  0  0  0  0  0  0  0  0
  -36.4620  161.2880   -7.8060 C   0  0  0  0  0  0  0  0  0  0  0  0
  -36.4740  162.2850   -8.7480 C   0  0  0  0  0  0  0  0  0  0  0  0
  -37.3860  163.3000   -8.5450 C   0  0  0  0  0  0  0  0  0  0  0  0
  -37.5340  164.4460   -9.4600 C   0  0  0  0  0  0  0  0  0  0  0  0
  -37.1560  164.3650  -10.8090 C   0  0  0  0  0  0  0  0  0  0  0  0
  -37.2970  165.4610  -11.6590 C   0  0  0  0  0  0  0  0  0  0  0  0
  -37.8210  166.6300  -11.1370 C   0  0  0  0  0  0  0  0  0  0  0  0
  -38.2060  166.7640   -9.8530 N   0  0  0  0  0  0  0  0  0  0  0  0
  -38.0600  165.6740   -9.0570 C   0  0  0  0  0  0  0  0  0  0  0  0
  -38.2200  163.2940   -7.4800 N   0  0  0  0  0  0  0  0  0  0  0  0
  -38.9456  166.1836   -4.3840 H   0  0  0  0  0  0  0  0  0  0  0  0
  -37.9943  165.1551   -5.5082 H   0  0  0  0  0  0  0  0  0  0  0  0
  -39.7883  165.0643   -5.5082 H   0  0  0  0  0  0  0  0  0  0  0  0
  -38.6652  165.5593   -2.2294 H   0  0  0  0  0  0  0  0  0  0  0  0
  -38.5523  163.8488   -0.4297 H   0  0  0  0  0  0  0  0  0  0  0  0
  -37.7610  160.6600   -0.7920 H   0  0  0  0  0  0  0  0  0  0  0  0
  -37.3153  159.2471    0.0311 H   0  0  0  0  0  0  0  0  0  0  0  0
  -36.7193  157.4405    1.6427 H   0  0  0  0  0  0  0  0  0  0  0  0
  -39.0885  155.8128    3.8525 H   0  0  0  0  0  0  0  0  0  0  0  0
  -37.3525  155.9398    3.3074 H   0  0  0  0  0  0  0  0  0  0  0  0
  -37.3860  158.9023    4.2827 H   0  0  0  0  0  0  0  0  0  0  0  0
  -36.7251  158.4977    5.9551 H   0  0  0  0  0  0  0  0  0  0  0  0
  -35.5258  158.0746    3.2586 H   0  0  0  0  0  0  0  0  0  0  0  0
  -34.7809  158.4433    4.8925 H   0  0  0  0  0  0  0  0  0  0  0  0
  -33.2016  156.2520    5.3909 H   0  0  0  0  0  0  0  0  0  0  0  0
  -33.3940  155.3680    3.8391 H   0  0  0  0  0  0  0  0  0  0  0  0
  -33.2259  157.1564    3.8391 H   0  0  0  0  0  0  0  0  0  0  0  0
  -35.2916  154.8206    5.8144 H   0  0  0  0  0  0  0  0  0  0  0  0
  -35.1944  156.4779    6.5639 H   0  0  0  0  0  0  0  0  0  0  0  0
  -37.5497  154.9706    5.4999 H   0  0  0  0  0  0  0  0  0  0  0  0
  -37.3677  156.1852    6.8866 H   0  0  0  0  0  0  0  0  0  0  0  0
  -40.5333  157.9466    3.6259 H   0  0  0  0  0  0  0  0  0  0  0  0
  -41.1272  159.7514    2.0158 H   0  0  0  0  0  0  0  0  0  0  0  0
  -38.8830  160.7354   -3.3908 H   0  0  0  0  0  0  0  0  0  0  0  0
  -39.9290  162.0580   -5.8460 H   0  0  0  0  0  0  0  0  0  0  0  0
  -35.7483  160.4607   -7.9334 H   0  0  0  0  0  0  0  0  0  0  0  0
  -35.7963  162.2758   -9.6144 H   0  0  0  0  0  0  0  0  0  0  0  0
  -36.7428  163.4240  -11.2011 H   0  0  0  0  0  0  0  0  0  0  0  0
  -36.9996  165.3979  -12.7162 H   0  0  0  0  0  0  0  0  0  0  0  0
  -37.9291  167.4964  -11.8061 H   0  0  0  0  0  0  0  0  0  0  0  0
  -38.3825  165.7663   -8.0094 H   0  0  0  0  0  0  0  0  0  0  0  0
  1  2  1  0
  2  3  1  0
  3  4  2  0
  4  5  1  0
  5  6  1  0
  6  7  1  0
  7  8  2  0
  7  9  1  0
  9 10  1  0
 10 11  2  0
 11 12  1  0
 12 13  1  0
 13 14  1  0
 14 15  1  0
 15 16  1  0
 16 17  1  0
 17 18  1  0
 17 19  1  0
 19 20  1  0
 12 21  2  0
 21 22  1  0
  5 23  2  0
 23 24  1  0
 24 25  1  0
 25 26  1  0
 26 27  2  0
 27 28  1  0
 28 29  2  0
 29 30  1  0
 30 31  1  0
 31 32  1  0
 32 33  2  0
 33 34  1  0
 34 35  2  0
 35 36  1  0
 30 37  2  0
 24  2  2  0
 37 26  1  0
 22  9  2  0
 36 31  2  0
 20 14  1  0
  1 38  1  0
  1 39  1  0
  1 40  1  0
  3 41  1  0
  4 42  1  0
  6 43  1  0
 10 44  1  0
 11 45  1  0
 13 46  1  0
 13 47  1  0
 15 48  1  0
 15 49  1  0
 16 50  1  0
 16 51  1  0
 18 52  1  0
 18 53  1  0
 18 54  1  0
 19 55  1  0
 19 56  1  0
 20 57  1  0
 20 58  1  0
 21 59  1  0
 22 60  1  0
 23 61  1  0
 25 62  1  0
 28 63  1  0
 29 64  1  0
 32 65  1  0
 33 66  1  0
 34 67  1  0
 36 68  1  0
M  END
>  <meeko>  (6) 
{"is_sidechain": false}

>  <vina_affinity_kcal_mol>  (6) 
-9.979

>  <pose_rank>  (6) 
6

$$$$

     RDKit          3D

 68 72  0  0  0  0  0  0  0  0999 V2000
  -36.3090  159.1620    4.8140 C   0  0  0  0  0  0  0  0  0  0  0  0
  -36.6660  157.7120    5.0100 C   0  0  0  0  0  0  0  0  0  0  0  0
  -36.3300  157.1050    6.2320 C   0  0  0  0  0  0  0  0  0  0  0  0
  -36.6270  155.7630    6.4730 C   0  0  0  0  0  0  0  0  0  0  0  0
  -37.2650  155.0050    5.5010 C   0  0  0  0  0  0  0  0  0  0  0  0
  -37.5950  153.6410    5.6530 N   0  0  0  0  0  0  0  0  0  0  0  0
  -36.7300  152.5630    5.6760 C   0  0  0  0  0  0  0  0  0  0  0  0
  -35.5060  152.5990    5.6390 O   0  0  0  0  0  0  0  0  0  0  0  0
  -37.3930  151.2330    5.8030 C   0  0  0  0  0  0  0  0  0  0  0  0
  -38.7870  151.1010    5.7830 C   0  0  0  0  0  0  0  0  0  0  0  0
  -39.3690  149.8370    5.9100 C   0  0  0  0  0  0  0  0  0  0  0  0
  -38.5690  148.6910    6.0500 C   0  0  0  0  0  0  0  0  0  0  0  0
  -39.2060  147.3210    6.1800 C   0  0  0  0  0  0  0  0  0  0  0  0
  -40.3220  147.2890    7.1460 N   0  0  0  0  0  0  0  0  0  0  0  0
  -40.0940  146.2980    8.2180 C   0  0  0  0  0  0  0  0  0  0  0  0
  -40.0850  144.8130    7.7680 C   0  0  0  0  0  0  0  0  0  0  0  0
  -40.8280  144.5530    6.5200 N   0  0  0  0  0  0  0  0  0  0  0  0
  -41.2120  143.1510    6.4100 C   0  0  0  0  0  0  0  0  0  0  0  0
  -41.9870  145.4500    6.4180 C   0  0  0  0  0  0  0  0  0  0  0  0
  -41.5900  146.9530    6.4560 C   0  0  0  0  0  0  0  0  0  0  0  0
  -37.1730  148.8320    6.0480 C   0  0  0  0  0  0  0  0  0  0  0  0
  -36.5900  150.0940    5.9200 C   0  0  0  0  0  0  0  0  0  0  0  0
  -37.5990  155.6110    4.2780 C   0  0  0  0  0  0  0  0  0  0  0  0
  -37.3180  156.9610    4.0060 C   0  0  0  0  0  0  0  0  0  0  0  0
  -37.6430  157.5640    2.7810 N   0  0  0  0  0  0  0  0  0  0  0  0
  -38.7790  158.1740    2.2600 C   0  0  0  0  0  0  0  0  0  0  0  0
  -39.9530  158.1750    2.9030 N   0  0  0  0  0  0  0  0  0  0  0  0
  -40.9850  158.7880    2.3020 C   0  0  0  0  0  0  0  0  0  0  0  0
  -40.8950  159.3990    1.0770 C   0  0  0  0  0  0  0  0  0  0  0  0
  -39.6590  159.3570    0.4680 C   0  0  0  0  0  0  0  0  0  0  0  0
  -39.3860  159.9660   -0.8460 C   0  0  0  0  0  0  0  0  0  0  0  0
  -38.9510  159.1990   -1.9380 C   0  0  0  0  0  0  0  0  0  0  0  0
  -38.6920  159.7940   -3.1720 C   0  0  0  0  0  0  0  0  0  0  0  0
  -38.8760  161.1590   -3.2920 C   0  0  0  0  0  0  0  0  0  0  0  0
  -39.2980  161.9450   -2.2810 N   0  0  0  0  0  0  0  0  0  0  0  0
  -39.5470  161.3300   -1.0970 C   0  0  0  0  0  0  0  0  0  0  0  0
  -38.6020  158.7530    1.0600 N   0  0  0  0  0  0  0  0  0  0  0  0
  -36.1898  159.6461    5.7946 H   0  0  0  0  0  0  0  0  0  0  0  0
  -35.3661  159.2348    4.2521 H   0  0  0  0  0  0  0  0  0  0  0  0
  -37.1103  159.6642    4.2521 H   0  0  0  0  0  0  0  0  0  0  0  0
  -35.8254  157.6965    7.0101 H   0  0  0  0  0  0  0  0  0  0  0  0
  -36.3549  155.3049    7.4353 H   0  0  0  0  0  0  0  0  0  0  0  0
  -38.5740  153.4510    5.8280 H   0  0  0  0  0  0  0  0  0  0  0  0
  -39.4229  151.9911    5.6675 H   0  0  0  0  0  0  0  0  0  0  0  0
  -40.4645  149.7385    5.9002 H   0  0  0  0  0  0  0  0  0  0  0  0
  -39.5880  147.0179    5.1940 H   0  0  0  0  0  0  0  0  0  0  0  0
  -38.4316  146.6338    6.5516 H   0  0  0  0  0  0  0  0  0  0  0  0
  -39.1202  146.5174    8.6801 H   0  0  0  0  0  0  0  0  0  0  0  0
  -40.9460  146.3984    8.9065 H   0  0  0  0  0  0  0  0  0  0  0  0
  -39.0398  144.5048    7.6174 H   0  0  0  0  0  0  0  0  0  0  0  0
  -40.5892  144.2403    8.5603 H   0  0  0  0  0  0  0  0  0  0  0  0
  -41.3293  142.7229    7.4165 H   0  0  0  0  0  0  0  0  0  0  0  0
  -42.1645  143.0734    5.8653 H   0  0  0  0  0  0  0  0  0  0  0  0
  -40.4320  142.5988    5.8653 H   0  0  0  0  0  0  0  0  0  0  0  0
  -42.5061  145.2473    5.4696 H   0  0  0  0  0  0  0  0  0  0  0  0
  -42.6338  145.2559    7.2863 H   0  0  0  0  0  0  0  0  0  0  0  0
  -41.5064  147.3021    5.4162 H   0  0  0  0  0  0  0  0  0  0  0  0
  -42.3785  147.4456    7.0439 H   0  0  0  0  0  0  0  0  0  0  0  0
  -36.5338  147.9424    6.1479 H   0  0  0  0  0  0  0  0  0  0  0  0
  -35.4945  150.1929    5.9111 H   0  0  0  0  0  0  0  0  0  0  0  0
  -38.0982  155.0072    3.5059 H   0  0  0  0  0  0  0  0  0  0  0  0
  -36.9130  157.6180    2.0880 H   0  0  0  0  0  0  0  0  0  0  0  0
  -41.9554  158.8011    2.8198 H   0  0  0  0  0  0  0  0  0  0  0  0
  -41.7585  159.8935    0.6082 H   0  0  0  0  0  0  0  0  0  0  0  0
  -38.8126  158.1143   -1.8187 H   0  0  0  0  0  0  0  0  0  0  0  0
  -38.3502  159.1932   -4.0277 H   0  0  0  0  0  0  0  0  0  0  0  0
  -38.6669  161.6289   -4.2643 H   0  0  0  0  0  0  0  0  0  0  0  0
  -39.9049  161.9574   -0.2674 H   0  0  0  0  0  0  0  0  0  0  0  0
  1  2  1  0
  2  3  1  0
  3  4  2  0
  4  5  1  0
  5  6  1  0
  6  7  1  0
  7  8  2  0
  7  9  1  0
  9 10  1  0
 10 11  2  0
 11 12  1  0
 12 13  1  0
 13 14  1  0
 14 15  1  0
 15 16  1  0
 16 17  1  0
 17 18  1  0
 17 19  1  0
 19 20  1  0
 12 21  2  0
 21 22  1  0
  5 23  2  0
 23 24  1  0
 24 25  1  0
 25 26  1  0
 26 27  2  0
 27 28  1  0
 28 29  2  0
 29 30  1  0
 30 31  1  0
 31 32  1  0
 32 33  2  0
 33 34  1  0
 34 35  2  0
 35 36  1  0
 30 37  2  0
 24  2  2  0
 37 26  1  0
 22  9  2  0
 36 31  2  0
 20 14  1  0
  1 38  1  0
  1 39  1  0
  1 40  1  0
  3 41  1  0
  4 42  1  0
  6 43  1  0
 10 44  1  0
 11 45  1  0
 13 46  1  0
 13 47  1  0
 15 48  1  0
 15 49  1  0
 16 50  1  0
 16 51  1  0
 18 52  1  0
 18 53  1  0
 18 54  1  0
 19 55  1  0
 19 56  1  0
 20 57  1  0
 20 58  1  0
 21 59  1  0
 22 60  1  0
 23 61  1  0
 25 62  1  0
 28 63  1  0
 29 64  1  0
 32 65  1  0
 33 66  1  0
 34 67  1  0
 36 68  1  0
M  END
>  <meeko>  (7) 
{"is_sidechain": false}

>  <vina_affinity_kcal_mol>  (7) 
-9.742

>  <pose_rank>  (7) 
7

$$$$

     RDKit          3D

 68 72  0  0  0  0  0  0  0  0999 V2000
  -34.5050  148.4350    8.1890 C   0  0  0  0  0  0  0  0  0  0  0  0
  -34.9080  149.7170    7.5080 C   0  0  0  0  0  0  0  0  0  0  0  0
  -35.2710  150.8100    8.3130 C   0  0  0  0  0  0  0  0  0  0  0  0
  -35.6600  152.0240    7.7450 C   0  0  0  0  0  0  0  0  0  0  0  0
  -35.6910  152.1670    6.3640 C   0  0  0  0  0  0  0  0  0  0  0  0
  -36.0800  153.3520    5.7030 N   0  0  0  0  0  0  0  0  0  0  0  0
  -35.4930  154.6010    5.7960 C   0  0  0  0  0  0  0  0  0  0  0  0
  -34.4810  154.8940    6.4200 O   0  0  0  0  0  0  0  0  0  0  0  0
  -36.1710  155.6690    5.0070 C   0  0  0  0  0  0  0  0  0  0  0  0
  -35.5340  156.8800    4.7080 C   0  0  0  0  0  0  0  0  0  0  0  0
  -36.2070  157.8570    3.9690 C   0  0  0  0  0  0  0  0  0  0  0  0
  -37.5160  157.6340    3.5130 C   0  0  0  0  0  0  0  0  0  0  0  0
  -38.2390  158.6950    2.7050 C   0  0  0  0  0  0  0  0  0  0  0  0
  -39.1650  158.1300    1.7030 N   0  0  0  0  0  0  0  0  0  0  0  0
  -38.5690  158.1100    0.3520 C   0  0  0  0  0  0  0  0  0  0  0  0
  -38.3000  159.5010   -0.2840 C   0  0  0  0  0  0  0  0  0  0  0  0
  -39.1440  160.5860    0.2520 N   0  0  0  0  0  0  0  0  0  0  0  0
  -39.2210  161.7080   -0.6750 C   0  0  0  0  0  0  0  0  0  0  0  0
  -40.4730  160.0730    0.6070 C   0  0  0  0  0  0  0  0  0  0  0  0
  -40.4160  158.9250    1.6550 C   0  0  0  0  0  0  0  0  0  0  0  0
  -38.1370  156.4090    3.7990 C   0  0  0  0  0  0  0  0  0  0  0  0
  -37.4670  155.4320    4.5360 C   0  0  0  0  0  0  0  0  0  0  0  0
  -35.3290  151.0750    5.5600 C   0  0  0  0  0  0  0  0  0  0  0  0
  -34.9290  149.8410    6.1010 C   0  0  0  0  0  0  0  0  0  0  0  0
  -34.5770  148.7460    5.2970 N   0  0  0  0  0  0  0  0  0  0  0  0
  -35.1420  148.1220    4.1880 C   0  0  0  0  0  0  0  0  0  0  0  0
  -36.4590  148.1380    3.9490 N   0  0  0  0  0  0  0  0  0  0  0  0
  -36.8940  147.4960    2.8530 C   0  0  0  0  0  0  0  0  0  0  0  0
  -36.0650  146.8310    1.9850 C   0  0  0  0  0  0  0  0  0  0  0  0
  -34.7210  146.8500    2.2940 C   0  0  0  0  0  0  0  0  0  0  0  0
  -33.6940  146.1910    1.4680 C   0  0  0  0  0  0  0  0  0  0  0  0
  -33.1740  144.9320    1.8050 C   0  0  0  0  0  0  0  0  0  0  0  0
  -32.1980  144.3260    1.0150 C   0  0  0  0  0  0  0  0  0  0  0  0
  -31.7560  144.9980   -0.1100 C   0  0  0  0  0  0  0  0  0  0  0  0
  -32.2230  146.2060   -0.4860 N   0  0  0  0  0  0  0  0  0  0  0  0
  -33.1770  146.7620    0.3030 C   0  0  0  0  0  0  0  0  0  0  0  0
  -34.2600  147.5000    3.3880 N   0  0  0  0  0  0  0  0  0  0  0  0
  -34.5475  148.5702    9.2798 H   0  0  0  0  0  0  0  0  0  0  0  0
  -35.1934  147.6300    7.8922 H   0  0  0  0  0  0  0  0  0  0  0  0
  -33.4798  148.1687    7.8922 H   0  0  0  0  0  0  0  0  0  0  0  0
  -35.2482  150.7072    9.4079 H   0  0  0  0  0  0  0  0  0  0  0  0
  -35.9422  152.8680    8.3915 H   0  0  0  0  0  0  0  0  0  0  0  0
  -36.8360  153.2460    5.0380 H   0  0  0  0  0  0  0  0  0  0  0  0
  -34.5059  157.0619    5.0542 H   0  0  0  0  0  0  0  0  0  0  0  0
  -35.7062  158.8098    3.7425 H   0  0  0  0  0  0  0  0  0  0  0  0
  -38.8148  159.3289    3.3955 H   0  0  0  0  0  0  0  0  0  0  0  0
  -37.4753  159.2682    2.1590 H   0  0  0  0  0  0  0  0  0  0  0  0
  -37.6099  157.5748    0.4132 H   0  0  0  0  0  0  0  0  0  0  0  0
  -39.3108  157.6212   -0.2967 H   0  0  0  0  0  0  0  0  0  0  0  0
  -37.2468  159.7636   -0.1059 H   0  0  0  0  0  0  0  0  0  0  0  0
  -38.5428  159.4113   -1.3531 H   0  0  0  0  0  0  0  0  0  0  0  0
  -39.2855  162.6484   -0.1079 H   0  0  0  0  0  0  0  0  0  0  0  0
  -38.3218  161.7227   -1.3084 H   0  0  0  0  0  0  0  0  0  0  0  0
  -40.1138  161.5997   -1.3084 H   0  0  0  0  0  0  0  0  0  0  0  0
  -41.0690  160.8989    1.0225 H   0  0  0  0  0  0  0  0  0  0  0  0
  -40.9252  159.6636   -0.3083 H   0  0  0  0  0  0  0  0  0  0  0  0
  -40.5650  159.3728    2.6486 H   0  0  0  0  0  0  0  0  0  0  0  0
  -41.1988  158.2150    1.3497 H   0  0  0  0  0  0  0  0  0  0  0  0
  -39.1589  156.2175    3.4398 H   0  0  0  0  0  0  0  0  0  0  0  0
  -37.9596  154.4715    4.7476 H   0  0  0  0  0  0  0  0  0  0  0  0
  -35.3595  151.1891    4.4664 H   0  0  0  0  0  0  0  0  0  0  0  0
  -33.7090  148.2800    5.5100 H   0  0  0  0  0  0  0  0  0  0  0  0
  -37.9730  147.5035    2.6394 H   0  0  0  0  0  0  0  0  0  0  0  0
  -36.4500  146.3128    1.0944 H   0  0  0  0  0  0  0  0  0  0  0  0
  -33.5413  144.4163    2.7045 H   0  0  0  0  0  0  0  0  0  0  0  0
  -31.7902  143.3392    1.2796 H   0  0  0  0  0  0  0  0  0  0  0  0
  -30.9827  144.5221   -0.7309 H   0  0  0  0  0  0  0  0  0  0  0  0
  -33.5753  147.7417    0.0005 H   0  0  0  0  0  0  0  0  0  0  0  0
  1  2  1  0
  2  3  1  0
  3  4  2  0
  4  5  1  0
  5  6  1  0
  6  7  1  0
  7  8  2  0
  7  9  1  0
  9 10  1  0
 10 11  2  0
 11 12  1  0
 12 13  1  0
 13 14  1  0
 14 15  1  0
 15 16  1  0
 16 17  1  0
 17 18  1  0
 17 19  1  0
 19 20  1  0
 12 21  2  0
 21 22  1  0
  5 23  2  0
 23 24  1  0
 24 25  1  0
 25 26  1  0
 26 27  2  0
 27 28  1  0
 28 29  2  0
 29 30  1  0
 30 31  1  0
 31 32  1  0
 32 33  2  0
 33 34  1  0
 34 35  2  0
 35 36  1  0
 30 37  2  0
 24  2  2  0
 37 26  1  0
 22  9  2  0
 36 31  2  0
 20 14  1  0
  1 38  1  0
  1 39  1  0
  1 40  1  0
  3 41  1  0
  4 42  1  0
  6 43  1  0
 10 44  1  0
 11 45  1  0
 13 46  1  0
 13 47  1  0
 15 48  1  0
 15 49  1  0
 16 50  1  0
 16 51  1  0
 18 52  1  0
 18 53  1  0
 18 54  1  0
 19 55  1  0
 19 56  1  0
 20 57  1  0
 20 58  1  0
 21 59  1  0
 22 60  1  0
 23 61  1  0
 25 62  1  0
 28 63  1  0
 29 64  1  0
 32 65  1  0
 33 66  1  0
 34 67  1  0
 36 68  1  0
M  END
>  <meeko>  (8) 
{"is_sidechain": false}

>  <vina_affinity_kcal_mol>  (8) 
-9.562

>  <pose_rank>  (8) 
8

$$$$

     RDKit          3D

 68 72  0  0  0  0  0  0  0  0999 V2000
  -36.4480  158.9920    5.2590 C   0  0  0  0  0  0  0  0  0  0  0  0
  -36.7940  157.5260    5.2300 C   0  0  0  0  0  0  0  0  0  0  0  0
  -36.5280  156.7590    6.3770 C   0  0  0  0  0  0  0  0  0  0  0  0
  -36.8190  155.3950    6.4130 C   0  0  0  0  0  0  0  0  0  0  0  0
  -37.3820  154.7740    5.3060 C   0  0  0  0  0  0  0  0  0  0  0  0
  -37.7000  153.4000    5.2480 N   0  0  0  0  0  0  0  0  0  0  0  0
  -37.0920  152.3650    5.9340 C   0  0  0  0  0  0  0  0  0  0  0  0
  -36.2080  152.4590    6.7760 O   0  0  0  0  0  0  0  0  0  0  0  0
  -37.6270  151.0090    5.6190 C   0  0  0  0  0  0  0  0  0  0  0  0
  -38.9720  150.6810    5.8290 C   0  0  0  0  0  0  0  0  0  0  0  0
  -39.4310  149.3970    5.5250 C   0  0  0  0  0  0  0  0  0  0  0  0
  -38.5590  148.4290    5.0020 C   0  0  0  0  0  0  0  0  0  0  0  0
  -39.0640  147.0390    4.6670 C   0  0  0  0  0  0  0  0  0  0  0  0
  -40.5100  147.0040    4.3720 N   0  0  0  0  0  0  0  0  0  0  0  0
  -41.1170  145.7090    4.7440 C   0  0  0  0  0  0  0  0  0  0  0  0
  -40.6430  144.4840    3.9160 C   0  0  0  0  0  0  0  0  0  0  0  0
  -40.1230  144.8210    2.5770 N   0  0  0  0  0  0  0  0  0  0  0  0
  -40.1660  143.6700    1.6840 C   0  0  0  0  0  0  0  0  0  0  0  0
  -40.8440  145.9740    2.0230 C   0  0  0  0  0  0  0  0  0  0  0  0
  -40.7460  147.2360    2.9260 C   0  0  0  0  0  0  0  0  0  0  0  0
  -37.2180  148.7740    4.7750 C   0  0  0  0  0  0  0  0  0  0  0  0
  -36.7570  150.0580    5.0770 C   0  0  0  0  0  0  0  0  0  0  0  0
  -37.6470  155.5400    4.1590 C   0  0  0  0  0  0  0  0  0  0  0  0
  -37.3690  156.9170    4.0930 C   0  0  0  0  0  0  0  0  0  0  0  0
  -37.6250  157.6810    2.9430 N   0  0  0  0  0  0  0  0  0  0  0  0
  -38.7660  158.2220    2.3600 C   0  0  0  0  0  0  0  0  0  0  0  0
  -39.9660  158.1750    2.9510 N   0  0  0  0  0  0  0  0  0  0  0  0
  -41.0000  158.7220    2.2920 C   0  0  0  0  0  0  0  0  0  0  0  0
  -40.8860  159.3130    1.0590 C   0  0  0  0  0  0  0  0  0  0  0  0
  -39.6220  159.3220    0.5050 C   0  0  0  0  0  0  0  0  0  0  0  0
  -39.3220  159.9170   -0.8090 C   0  0  0  0  0  0  0  0  0  0  0  0
  -39.5740  161.2710   -1.0790 C   0  0  0  0  0  0  0  0  0  0  0  0
  -39.2890  161.8160   -2.3310 C   0  0  0  0  0  0  0  0  0  0  0  0
  -38.7510  160.9870   -3.2990 C   0  0  0  0  0  0  0  0  0  0  0  0
  -38.4830  159.6810   -3.0940 N   0  0  0  0  0  0  0  0  0  0  0  0
  -38.7660  159.1880   -1.8620 C   0  0  0  0  0  0  0  0  0  0  0  0
  -38.5650  158.7850    1.1560 N   0  0  0  0  0  0  0  0  0  0  0  0
  -36.3684  159.3294    6.3030 H   0  0  0  0  0  0  0  0  0  0  0  0
  -35.4874  159.1522    4.7476 H   0  0  0  0  0  0  0  0  0  0  0  0
  -37.2356  159.5648    4.7476 H   0  0  0  0  0  0  0  0  0  0  0  0
  -36.0835  157.2414    7.2600 H   0  0  0  0  0  0  0  0  0  0  0  0
  -36.6022  154.8108    7.3195 H   0  0  0  0  0  0  0  0  0  0  0  0
  -38.5090  153.1680    4.6840 H   0  0  0  0  0  0  0  0  0  0  0  0
  -39.6660  151.4330    6.2326 H   0  0  0  0  0  0  0  0  0  0  0  0
  -40.4870  149.1417    5.6973 H   0  0  0  0  0  0  0  0  0  0  0  0
  -38.5179  146.6710    3.7859 H   0  0  0  0  0  0  0  0  0  0  0  0
  -38.8940  146.4063    5.5506 H   0  0  0  0  0  0  0  0  0  0  0  0
  -40.8805  145.5154    5.8007 H   0  0  0  0  0  0  0  0  0  0  0  0
  -42.1932  145.8115    4.5410 H   0  0  0  0  0  0  0  0  0  0  0  0
  -39.8451  143.9763    4.4778 H   0  0  0  0  0  0  0  0  0  0  0  0
  -41.5269  143.8481    3.7599 H   0  0  0  0  0  0  0  0  0  0  0  0
  -40.2005  142.7454    2.2789 H   0  0  0  0  0  0  0  0  0  0  0  0
  -41.0625  143.7315    1.0495 H   0  0  0  0  0  0  0  0  0  0  0  0
  -39.2674  143.6644    1.0495 H   0  0  0  0  0  0  0  0  0  0  0  0
  -40.4193  146.2135    1.0369 H   0  0  0  0  0  0  0  0  0  0  0  0
  -41.9066  145.6981    1.9533 H   0  0  0  0  0  0  0  0  0  0  0  0
  -39.9175  147.8529    2.5478 H   0  0  0  0  0  0  0  0  0  0  0  0
  -41.7365  147.7109    2.8674 H   0  0  0  0  0  0  0  0  0  0  0  0
  -36.5253  148.0289    4.3567 H   0  0  0  0  0  0  0  0  0  0  0  0
  -35.7060  150.3216    4.8877 H   0  0  0  0  0  0  0  0  0  0  0  0
  -38.0877  155.0452    3.2810 H   0  0  0  0  0  0  0  0  0  0  0  0
  -36.8290  157.9510    2.3860 H   0  0  0  0  0  0  0  0  0  0  0  0
  -41.9922  158.6949    2.7662 H   0  0  0  0  0  0  0  0  0  0  0  0
  -41.7513  159.7538    0.5424 H   0  0  0  0  0  0  0  0  0  0  0  0
  -40.0018  161.9108   -0.2931 H   0  0  0  0  0  0  0  0  0  0  0  0
  -39.4869  162.8771   -2.5430 H   0  0  0  0  0  0  0  0  0  0  0  0
  -38.5302  161.4153   -4.2878 H   0  0  0  0  0  0  0  0  0  0  0  0
  -38.5389  158.1276   -1.6778 H   0  0  0  0  0  0  0  0  0  0  0  0
  1  2  1  0
  2  3  1  0
  3  4  2  0
  4  5  1  0
  5  6  1  0
  6  7  1  0
  7  8  2  0
  7  9  1  0
  9 10  1  0
 10 11  2  0
 11 12  1  0
 12 13  1  0
 13 14  1  0
 14 15  1  0
 15 16  1  0
 16 17  1  0
 17 18  1  0
 17 19  1  0
 19 20  1  0
 12 21  2  0
 21 22  1  0
  5 23  2  0
 23 24  1  0
 24 25  1  0
 25 26  1  0
 26 27  2  0
 27 28  1  0
 28 29  2  0
 29 30  1  0
 30 31  1  0
 31 32  1  0
 32 33  2  0
 33 34  1  0
 34 35  2  0
 35 36  1  0
 30 37  2  0
 24  2  2  0
 37 26  1  0
 22  9  2  0
 36 31  2  0
 20 14  1  0
  1 38  1  0
  1 39  1  0
  1 40  1  0
  3 41  1  0
  4 42  1  0
  6 43  1  0
 10 44  1  0
 11 45  1  0
 13 46  1  0
 13 47  1  0
 15 48  1  0
 15 49  1  0
 16 50  1  0
 16 51  1  0
 18 52  1  0
 18 53  1  0
 18 54  1  0
 19 55  1  0
 19 56  1  0
 20 57  1  0
 20 58  1  0
 21 59  1  0
 22 60  1  0
 23 61  1  0
 25 62  1  0
 28 63  1  0
 29 64  1  0
 32 65  1  0
 33 66  1  0
 34 67  1  0
 36 68  1  0
M  END
>  <meeko>  (9) 
{"is_sidechain": false}

>  <vina_affinity_kcal_mol>  (9) 
-9.344

>  <pose_rank>  (9) 
9

$$$$

     RDKit          3D

 68 72  0  0  0  0  0  0  0  0999 V2000
  -40.9870  145.9890    0.4330 C   0  0  0  0  0  0  0  0  0  0  0  0
  -40.2800  147.0080    1.2880 C   0  0  0  0  0  0  0  0  0  0  0  0
  -40.8030  147.2830    2.5630 C   0  0  0  0  0  0  0  0  0  0  0  0
  -40.1990  148.2210    3.4010 C   0  0  0  0  0  0  0  0  0  0  0  0
  -39.0630  148.8990    2.9810 C   0  0  0  0  0  0  0  0  0  0  0  0
  -38.3920  149.8690    3.7560 N   0  0  0  0  0  0  0  0  0  0  0  0
  -37.6390  149.6630    4.8980 C   0  0  0  0  0  0  0  0  0  0  0  0
  -37.3560  148.5870    5.4090 O   0  0  0  0  0  0  0  0  0  0  0  0
  -37.0960  150.9050    5.5190 C   0  0  0  0  0  0  0  0  0  0  0  0
  -35.8310  150.9360    6.1190 C   0  0  0  0  0  0  0  0  0  0  0  0
  -35.3620  152.1200    6.6950 C   0  0  0  0  0  0  0  0  0  0  0  0
  -36.1440  153.2860    6.6720 C   0  0  0  0  0  0  0  0  0  0  0  0
  -35.6260  154.5700    7.2910 C   0  0  0  0  0  0  0  0  0  0  0  0
  -34.5060  155.1670    6.5380 N   0  0  0  0  0  0  0  0  0  0  0  0
  -34.0990  156.4730    7.0980 C   0  0  0  0  0  0  0  0  0  0  0  0
  -35.1470  157.6120    6.9710 C   0  0  0  0  0  0  0  0  0  0  0  0
  -36.1150  157.4270    5.8730 N   0  0  0  0  0  0  0  0  0  0  0  0
  -36.7250  158.6920    5.4820 C   0  0  0  0  0  0  0  0  0  0  0  0
  -35.4770  156.7490    4.7380 C   0  0  0  0  0  0  0  0  0  0  0  0
  -34.8870  155.3610    5.1180 C   0  0  0  0  0  0  0  0  0  0  0  0
  -37.4010  153.2510    6.0490 C   0  0  0  0  0  0  0  0  0  0  0  0
  -37.8710  152.0690    5.4730 C   0  0  0  0  0  0  0  0  0  0  0  0
  -38.5410  148.6260    1.7060 C   0  0  0  0  0  0  0  0  0  0  0  0
  -39.1230  147.6840    0.8400 C   0  0  0  0  0  0  0  0  0  0  0  0
  -38.6070  147.4190   -0.4380 N   0  0  0  0  0  0  0  0  0  0  0  0
  -37.3440  147.4870   -1.0180 C   0  0  0  0  0  0  0  0  0  0  0  0
  -37.1030  148.1870   -2.1330 N   0  0  0  0  0  0  0  0  0  0  0  0
  -35.8470  148.1760   -2.6090 C   0  0  0  0  0  0  0  0  0  0  0  0
  -34.8190  147.4860   -2.0190 C   0  0  0  0  0  0  0  0  0  0  0  0
  -35.1380  146.7820   -0.8760 C   0  0  0  0  0  0  0  0  0  0  0  0
  -34.1550  145.9910   -0.1150 C   0  0  0  0  0  0  0  0  0  0  0  0
  -32.8730  145.7250   -0.6210 C   0  0  0  0  0  0  0  0  0  0  0  0
  -31.9580  144.9690    0.1110 C   0  0  0  0  0  0  0  0  0  0  0  0
  -32.3460  144.4900    1.3490 C   0  0  0  0  0  0  0  0  0  0  0  0
  -33.5610  144.7190    1.8870 N   0  0  0  0  0  0  0  0  0  0  0  0
  -34.4230  145.4640    1.1500 C   0  0  0  0  0  0  0  0  0  0  0  0
  -36.3950  146.7880   -0.3740 N   0  0  0  0  0  0  0  0  0  0  0  0
  -41.4946  145.2573    1.0787 H   0  0  0  0  0  0  0  0  0  0  0  0
  -41.7292  146.4948   -0.2020 H   0  0  0  0  0  0  0  0  0  0  0  0
  -40.2534  145.4708   -0.2020 H   0  0  0  0  0  0  0  0  0  0  0  0
  -41.7025  146.7506    2.9057 H   0  0  0  0  0  0  0  0  0  0  0  0
  -40.6235  148.4233    4.3954 H   0  0  0  0  0  0  0  0  0  0  0  0
  -38.4210  150.8120    3.3870 H   0  0  0  0  0  0  0  0  0  0  0  0
  -35.2075  150.0300    6.1369 H   0  0  0  0  0  0  0  0  0  0  0  0
  -34.3705  152.1385    7.1710 H   0  0  0  0  0  0  0  0  0  0  0  0
  -36.4500  155.2978    7.3278 H   0  0  0  0  0  0  0  0  0  0  0  0
  -35.2499  154.3211    8.2943 H   0  0  0  0  0  0  0  0  0  0  0  0
  -33.8817  156.3303    8.1668 H   0  0  0  0  0  0  0  0  0  0  0  0
  -33.2292  156.7964    6.5074 H   0  0  0  0  0  0  0  0  0  0  0  0
  -35.7060  157.6727    7.9164 H   0  0  0  0  0  0  0  0  0  0  0  0
  -34.5870  158.5315    6.7455 H   0  0  0  0  0  0  0  0  0  0  0  0
  -36.9992  159.2607    6.3827 H   0  0  0  0  0  0  0  0  0  0  0  0
  -36.0090  159.2750    4.8841 H   0  0  0  0  0  0  0  0  0  0  0  0
  -37.6270  158.4948    4.8841 H   0  0  0  0  0  0  0  0  0  0  0  0
  -36.2277  156.6069    3.9466 H   0  0  0  0  0  0  0  0  0  0  0  0
  -34.6429  157.3819    4.4010 H   0  0  0  0  0  0  0  0  0  0  0  0
  -35.6394  154.5987    4.8673 H   0  0  0  0  0  0  0  0  0  0  0  0
  -33.9470  155.2810    4.5523 H   0  0  0  0  0  0  0  0  0  0  0  0
  -38.0196  154.1599    6.0142 H   0  0  0  0  0  0  0  0  0  0  0  0
  -38.8547  152.0529    4.9810 H   0  0  0  0  0  0  0  0  0  0  0  0
  -37.6442  149.1690    1.3730 H   0  0  0  0  0  0  0  0  0  0  0  0
  -39.2520  147.0710   -1.1300 H   0  0  0  0  0  0  0  0  0  0  0  0
  -35.6313  148.7515   -3.5213 H   0  0  0  0  0  0  0  0  0  0  0  0
  -33.7998  147.4934   -2.4328 H   0  0  0  0  0  0  0  0  0  0  0  0
  -32.5864  146.1180   -1.6076 H   0  0  0  0  0  0  0  0  0  0  0  0
  -30.9538  144.7591   -0.2859 H   0  0  0  0  0  0  0  0  0  0  0  0
  -31.6256  143.8907    1.9251 H   0  0  0  0  0  0  0  0  0  0  0  0
  -35.4127  145.6693    1.5841 H   0  0  0  0  0  0  0  0  0  0  0  0
  1  2  1  0
  2  3  1  0
  3  4  2  0
  4  5  1  0
  5  6  1  0
  6  7  1  0
  7  8  2  0
  7  9  1  0
  9 10  1  0
 10 11  2  0
 11 12  1  0
 12 13  1  0
 13 14  1  0
 14 15  1  0
 15 16  1  0
 16 17  1  0
 17 18  1  0
 17 19  1  0
 19 20  1  0
 12 21  2  0
 21 22  1  0
  5 23  2  0
 23 24  1  0
 24 25  1  0
 25 26  1  0
 26 27  2  0
 27 28  1  0
 28 29  2  0
 29 30  1  0
 30 31  1  0
 31 32  1  0
 32 33  2  0
 33 34  1  0
 34 35  2  0
 35 36  1  0
 30 37  2  0
 24  2  2  0
 37 26  1  0
 22  9  2  0
 36 31  2  0
 20 14  1  0
  1 38  1  0
  1 39  1  0
  1 40  1  0
  3 41  1  0
  4 42  1  0
  6 43  1  0
 10 44  1  0
 11 45  1  0
 13 46  1  0
 13 47  1  0
 15 48  1  0
 15 49  1  0
 16 50  1  0
 16 51  1  0
 18 52  1  0
 18 53  1  0
 18 54  1  0
 19 55  1  0
 19 56  1  0
 20 57  1  0
 20 58  1  0
 21 59  1  0
 22 60  1  0
 23 61  1  0
 25 62  1  0
 28 63  1  0
 29 64  1  0
 32 65  1  0
 33 66  1  0
 34 67  1  0
 36 68  1  0
M  END
>  <meeko>  (10) 
{"is_sidechain": false}

>  <vina_affinity_kcal_mol>  (10) 
-9.233

>  <pose_rank>  (10) 
10

$$$$
