
     RDKit          3D

 48 50  0  0  0  0  0  0  0  0999 V2000
   -6.9829    0.7941    3.3614 C   0  0  0  0  0  0  0  0  0  0  0  0
   -6.7090    0.0991    2.1338 N   0  0  0  0  0  0  0  0  0  0  0  0
   -5.6966    0.4800    1.2788 C   0  0  0  0  0  0  0  0  0  0  0  0
   -5.0160    1.4889    1.4225 O   0  0  0  0  0  0  0  0  0  0  0  0
   -5.4747   -0.4584    0.1307 C   0  0  0  0  0  0  0  0  0  0  0  0
   -4.4912   -0.1794   -0.8048 C   0  0  0  0  0  0  0  0  0  0  0  0
   -4.3300   -1.0817   -1.8505 C   0  0  0  0  0  0  0  0  0  0  0  0
   -3.4168   -0.8878   -2.8621 O   0  0  0  0  0  0  0  0  0  0  0  0
   -2.1287   -0.5873   -2.4840 C   0  0  0  0  0  0  0  0  0  0  0  0
   -1.5209    0.5098   -3.0933 C   0  0  0  0  0  0  0  0  0  0  0  0
   -0.1999    0.8422   -2.7773 C   0  0  0  0  0  0  0  0  0  0  0  0
    0.5207    0.0788   -1.8495 C   0  0  0  0  0  0  0  0  0  0  0  0
    1.8521    0.4679   -1.5789 N   0  0  0  0  0  0  0  0  0  0  0  0
    2.5111    0.2495   -0.3754 C   0  0  0  0  0  0  0  0  0  0  0  0
    1.9685   -0.1015    0.6621 O   0  0  0  0  0  0  0  0  0  0  0  0
    3.8614    0.5313   -0.5250 N   0  0  0  0  0  0  0  0  0  0  0  0
    4.8465    0.5520    0.4818 C   0  0  0  0  0  0  0  0  0  0  0  0
    4.5662    0.4908    1.8452 C   0  0  0  0  0  0  0  0  0  0  0  0
    5.6027    0.5279    2.7830 C   0  0  0  0  0  0  0  0  0  0  0  0
    6.9318    0.6321    2.3679 C   0  0  0  0  0  0  0  0  0  0  0  0
    8.1506    0.6730    3.5884 Cl  0  0  0  0  0  0  0  0  0  0  0  0
    7.2397    0.7031    1.0063 C   0  0  0  0  0  0  0  0  0  0  0  0
    8.6603    0.8198    0.5264 C   0  0  0  0  0  0  0  0  0  0  0  0
    8.7549    0.8769   -0.8357 F   0  0  0  0  0  0  0  0  0  0  0  0
    9.2859    1.9427    0.9734 F   0  0  0  0  0  0  0  0  0  0  0  0
    9.4399   -0.2329    0.8942 F   0  0  0  0  0  0  0  0  0  0  0  0
    6.1820    0.6642    0.0727 C   0  0  0  0  0  0  0  0  0  0  0  0
   -0.0905   -1.0532   -1.2915 C   0  0  0  0  0  0  0  0  0  0  0  0
    0.5975   -1.9054   -0.5187 F   0  0  0  0  0  0  0  0  0  0  0  0
   -1.4080   -1.3868   -1.5994 C   0  0  0  0  0  0  0  0  0  0  0  0
   -5.1588   -2.1947   -1.9499 C   0  0  0  0  0  0  0  0  0  0  0  0
   -6.1087   -2.3905   -0.9629 C   0  0  0  0  0  0  0  0  0  0  0  0
   -6.2875   -1.5548    0.0818 N   0  0  0  0  0  0  0  0  0  0  0  0
   -6.3058    0.4175    4.1323 H   0  0  0  0  0  0  0  0  0  0  0  0
   -6.8293    1.8691    3.2363 H   0  0  0  0  0  0  0  0  0  0  0  0
   -8.0174    0.5952    3.6504 H   0  0  0  0  0  0  0  0  0  0  0  0
   -7.1254   -0.8108    1.9519 H   0  0  0  0  0  0  0  0  0  0  0  0
   -3.8847    0.7151   -0.7191 H   0  0  0  0  0  0  0  0  0  0  0  0
   -2.0771    1.1114   -3.8082 H   0  0  0  0  0  0  0  0  0  0  0  0
    0.2461    1.7115   -3.2533 H   0  0  0  0  0  0  0  0  0  0  0  0
    2.2069    1.2530   -2.1049 H   0  0  0  0  0  0  0  0  0  0  0  0
    4.1870    0.5401   -1.4805 H   0  0  0  0  0  0  0  0  0  0  0  0
    3.5479    0.4179    2.2174 H   0  0  0  0  0  0  0  0  0  0  0  0
    5.3576    0.4751    3.8419 H   0  0  0  0  0  0  0  0  0  0  0  0
    6.4170    0.7190   -0.9898 H   0  0  0  0  0  0  0  0  0  0  0  0
   -1.8397   -2.2804   -1.1615 H   0  0  0  0  0  0  0  0  0  0  0  0
   -5.0615   -2.8932   -2.7735 H   0  0  0  0  0  0  0  0  0  0  0  0
   -6.7731   -3.2501   -0.9908 H   0  0  0  0  0  0  0  0  0  0  0  0
  1  2  1  0
  2  3  1  0
  3  4  2  0
  3  5  1  0
  5  6  2  0
  6  7  1  0
  7  8  1  0
  8  9  1  0
  9 10  1  0
 10 11  2  0
 11 12  1  0
 12 13  1  0
 13 14  1  0
 14 15  2  0
 14 16  1  0
 16 17  1  0
 17 18  1  0
 18 19  2  0
 19 20  1  0
 20 21  1  0
 20 22  2  0
 22 23  1  0
 23 24  1  0
 23 25  1  0
 23 26  1  0
 22 27  1  0
 12 28  2  0
 28 29  1  0
 28 30  1  0
  7 31  2  0
 31 32  1  0
 32 33  2  0
 33  5  1  0
 30  9  2  0
 27 17  2  0
  1 34  1  0
  1 35  1  0
  1 36  1  0
  2 37  1  0
  6 38  1  0
 10 39  1  0
 11 40  1  0
 13 41  1  0
 16 42  1  0
 18 43  1  0
 19 44  1  0
 27 45  1  0
 30 46  1  0
 31 47  1  0
 32 48  1  0
M  END
$$$$
