
     RDKit          3D

 48 50  0  0  0  0  0  0  0  0999 V2000
  -37.9480  165.7100   -7.7800 C   0  0  0  0  0  0  0  0  0  0  0  0
  -38.3820  165.1720   -6.5210 N   0  0  0  0  0  0  0  0  0  0  0  0
  -37.8900  163.9880   -6.0140 C   0  0  0  0  0  0  0  0  0  0  0  0
  -37.1310  163.2410   -6.6210 O   0  0  0  0  0  0  0  0  0  0  0  0
  -38.3540  163.6730   -4.6240 C   0  0  0  0  0  0  0  0  0  0  0  0
  -38.9310  162.4420   -4.3530 C   0  0  0  0  0  0  0  0  0  0  0  0
  -39.3460  162.2040   -3.0470 C   0  0  0  0  0  0  0  0  0  0  0  0
  -39.9710  161.0380   -2.6700 O   0  0  0  0  0  0  0  0  0  0  0  0
  -39.7710  160.6180   -1.3750 C   0  0  0  0  0  0  0  0  0  0  0  0
  -38.4570  160.3880   -0.9710 C   0  0  0  0  0  0  0  0  0  0  0  0
  -38.1930  159.9240    0.3210 C   0  0  0  0  0  0  0  0  0  0  0  0
  -39.2430  159.6880    1.2180 C   0  0  0  0  0  0  0  0  0  0  0  0
  -38.9070  159.2170    2.5070 N   0  0  0  0  0  0  0  0  0  0  0  0
  -38.2490  158.0200    2.7660 C   0  0  0  0  0  0  0  0  0  0  0  0
  -38.0770  157.1300    1.9470 O   0  0  0  0  0  0  0  0  0  0  0  0
  -37.8640  157.9790    4.0980 N   0  0  0  0  0  0  0  0  0  0  0  0
  -37.2820  156.8960    4.7860 C   0  0  0  0  0  0  0  0  0  0  0  0
  -37.9430  155.6980    5.0500 C   0  0  0  0  0  0  0  0  0  0  0  0
  -37.2980  154.6740    5.7500 C   0  0  0  0  0  0  0  0  0  0  0  0
  -35.9860  154.8380    6.1990 C   0  0  0  0  0  0  0  0  0  0  0  0
  -35.2630  153.5270    7.0560 Cl  0  0  0  0  0  0  0  0  0  0  0  0
  -35.3040  156.0330    5.9550 C   0  0  0  0  0  0  0  0  0  0  0  0
  -33.8930  156.2440    6.4290 C   0  0  0  0  0  0  0  0  0  0  0  0
  -33.4300  157.5030    6.1680 F   0  0  0  0  0  0  0  0  0  0  0  0
  -33.7490  156.0840    7.7730 F   0  0  0  0  0  0  0  0  0  0  0  0
  -32.9970  155.4060    5.8390 F   0  0  0  0  0  0  0  0  0  0  0  0
  -35.9690  157.0570    5.2470 C   0  0  0  0  0  0  0  0  0  0  0  0
  -40.5600  159.8720    0.7730 C   0  0  0  0  0  0  0  0  0  0  0  0
  -41.6070  159.5180    1.5320 F   0  0  0  0  0  0  0  0  0  0  0  0
  -40.8290  160.3380   -0.5130 C   0  0  0  0  0  0  0  0  0  0  0  0
  -39.2070  163.1920   -2.0770 C   0  0  0  0  0  0  0  0  0  0  0  0
  -38.6130  164.3870   -2.4420 C   0  0  0  0  0  0  0  0  0  0  0  0
  -38.1750  164.6560   -3.6910 N   0  0  0  0  0  0  0  0  0  0  0  0
  -37.2664  166.5549   -7.6023 H   0  0  0  0  0  0  0  0  0  0  0  0
  -37.4235  164.9297   -8.3510 H   0  0  0  0  0  0  0  0  0  0  0  0
  -38.8216  166.0575   -8.3510 H   0  0  0  0  0  0  0  0  0  0  0  0
  -38.9210  165.7420   -5.8740 H   0  0  0  0  0  0  0  0  0  0  0  0
  -39.0557  161.6834   -5.1398 H   0  0  0  0  0  0  0  0  0  0  0  0
  -37.6271  160.5717   -1.6693 H   0  0  0  0  0  0  0  0  0  0  0  0
  -37.1545  159.7431    0.6353 H   0  0  0  0  0  0  0  0  0  0  0  0
  -39.4840  159.5420    3.2690 H   0  0  0  0  0  0  0  0  0  0  0  0
  -37.8350  158.8780    4.5570 H   0  0  0  0  0  0  0  0  0  0  0  0
  -38.9782  155.5572    4.7057 H   0  0  0  0  0  0  0  0  0  0  0  0
  -37.8286  153.7311    5.9487 H   0  0  0  0  0  0  0  0  0  0  0  0
  -35.4439  158.0038    5.0526 H   0  0  0  0  0  0  0  0  0  0  0  0
  -41.8678  160.4834   -0.8443 H   0  0  0  0  0  0  0  0  0  0  0  0
  -39.5597  163.0274   -1.0482 H   0  0  0  0  0  0  0  0  0  0  0  0
  -38.4905  165.1621   -1.6712 H   0  0  0  0  0  0  0  0  0  0  0  0
  1  2  1  0
  2  3  1  0
  3  4  2  0
  3  5  1  0
  5  6  2  0
  6  7  1  0
  7  8  1  0
  8  9  1  0
  9 10  1  0
 10 11  2  0
 11 12  1  0
 12 13  1  0
 13 14  1  0
 14 15  2  0
 14 16  1  0
 16 17  1  0
 17 18  1  0
 18 19  2  0
 19 20  1  0
 20 21  1  0
 20 22  2  0
 22 23  1  0
 23 24  1  0
 23 25  1  0
 23 26  1  0
 22 27  1  0
 12 28  2  0
 28 29  1  0
 28 30  1  0
  7 31  2  0
 31 32  1  0
 32 33  2  0
 33  5  1  0
 30  9  2  0
 27 17  2  0
  1 34  1  0
  1 35  1  0
  1 36  1  0
  2 37  1  0
  6 38  1  0
 10 39  1  0
 11 40  1  0
 13 41  1  0
 16 42  1  0
 18 43  1  0
 19 44  1  0
 27 45  1  0
 30 46  1  0
 31 47  1  0
 32 48  1  0
M  END
>  <meeko>  (1) 
{"is_sidechain": false}

>  <vina_affinity_kcal_mol>  (1) 
-10.517

>  <pose_rank>  (1) 
1

$$$$

     RDKit          3D

 48 50  0  0  0  0  0  0  0  0999 V2000
  -33.6300  152.9440    5.5150 C   0  0  0  0  0  0  0  0  0  0  0  0
  -34.2750  154.1480    5.0720 N   0  0  0  0  0  0  0  0  0  0  0  0
  -35.5990  154.4190    5.3410 C   0  0  0  0  0  0  0  0  0  0  0  0
  -36.3690  153.6310    5.8800 O   0  0  0  0  0  0  0  0  0  0  0  0
  -36.0440  155.7890    4.9260 C   0  0  0  0  0  0  0  0  0  0  0  0
  -37.3650  156.0020    4.5610 C   0  0  0  0  0  0  0  0  0  0  0  0
  -37.7230  157.2920    4.1820 C   0  0  0  0  0  0  0  0  0  0  0  0
  -38.9920  157.6140    3.7580 O   0  0  0  0  0  0  0  0  0  0  0  0
  -39.1070  158.1350    2.4900 C   0  0  0  0  0  0  0  0  0  0  0  0
  -40.2120  158.9450    2.2280 C   0  0  0  0  0  0  0  0  0  0  0  0
  -40.4030  159.4740    0.9480 C   0  0  0  0  0  0  0  0  0  0  0  0
  -39.4910  159.1950   -0.0780 C   0  0  0  0  0  0  0  0  0  0  0  0
  -39.7460  159.7590   -1.3480 N   0  0  0  0  0  0  0  0  0  0  0  0
  -39.1080  160.8840   -1.8580 C   0  0  0  0  0  0  0  0  0  0  0  0
  -38.4190  161.6500   -1.2010 O   0  0  0  0  0  0  0  0  0  0  0  0
  -39.4120  161.0220   -3.2040 N   0  0  0  0  0  0  0  0  0  0  0  0
  -39.0650  162.0920   -4.0530 C   0  0  0  0  0  0  0  0  0  0  0  0
  -39.1580  163.4340   -3.6890 C   0  0  0  0  0  0  0  0  0  0  0  0
  -38.8040  164.4380   -4.5960 C   0  0  0  0  0  0  0  0  0  0  0  0
  -38.3580  164.1120   -5.8780 C   0  0  0  0  0  0  0  0  0  0  0  0
  -37.9420  165.4100   -6.9350 Cl  0  0  0  0  0  0  0  0  0  0  0  0
  -38.2640  162.7740   -6.2710 C   0  0  0  0  0  0  0  0  0  0  0  0
  -37.7920  162.3890   -7.6450 C   0  0  0  0  0  0  0  0  0  0  0  0
  -38.5710  162.9130   -8.6380 F   0  0  0  0  0  0  0  0  0  0  0  0
  -36.5300  162.8200   -7.9190 F   0  0  0  0  0  0  0  0  0  0  0  0
  -37.7990  161.0450   -7.8590 F   0  0  0  0  0  0  0  0  0  0  0  0
  -38.6250  161.7730   -5.3440 C   0  0  0  0  0  0  0  0  0  0  0  0
  -38.4190  158.3330    0.1920 C   0  0  0  0  0  0  0  0  0  0  0  0
  -37.6040  157.9100   -0.7840 F   0  0  0  0  0  0  0  0  0  0  0  0
  -38.2200  157.8070    1.4670 C   0  0  0  0  0  0  0  0  0  0  0  0
  -36.7670  158.3020    4.1460 C   0  0  0  0  0  0  0  0  0  0  0  0
  -35.4750  157.9930    4.5340 C   0  0  0  0  0  0  0  0  0  0  0  0
  -35.0860  156.7620    4.9300 N   0  0  0  0  0  0  0  0  0  0  0  0
  -33.6164  152.9186    6.6146 H   0  0  0  0  0  0  0  0  0  0  0  0
  -34.1814  152.0714    5.1349 H   0  0  0  0  0  0  0  0  0  0  0  0
  -32.5981  152.9197    5.1349 H   0  0  0  0  0  0  0  0  0  0  0  0
  -33.7260  154.9260    4.7150 H   0  0  0  0  0  0  0  0  0  0  0  0
  -38.1002  155.1838    4.5708 H   0  0  0  0  0  0  0  0  0  0  0  0
  -40.9330  159.1675    3.0284 H   0  0  0  0  0  0  0  0  0  0  0  0
  -41.2749  160.1133    0.7453 H   0  0  0  0  0  0  0  0  0  0  0  0
  -40.6630  159.5950   -1.7370 H   0  0  0  0  0  0  0  0  0  0  0  0
  -39.7560  160.1820   -3.6480 H   0  0  0  0  0  0  0  0  0  0  0  0
  -39.5116  163.7050   -2.6833 H   0  0  0  0  0  0  0  0  0  0  0  0
  -38.8777  165.4939   -4.2965 H   0  0  0  0  0  0  0  0  0  0  0  0
  -38.5592  160.7163   -5.6426 H   0  0  0  0  0  0  0  0  0  0  0  0
  -37.3693  157.1381    1.6642 H   0  0  0  0  0  0  0  0  0  0  0  0
  -37.0308  159.3183    3.8181 H   0  0  0  0  0  0  0  0  0  0  0  0
  -34.7226  158.7953    4.5190 H   0  0  0  0  0  0  0  0  0  0  0  0
  1  2  1  0
  2  3  1  0
  3  4  2  0
  3  5  1  0
  5  6  2  0
  6  7  1  0
  7  8  1  0
  8  9  1  0
  9 10  1  0
 10 11  2  0
 11 12  1  0
 12 13  1  0
 13 14  1  0
 14 15  2  0
 14 16  1  0
 16 17  1  0
 17 18  1  0
 18 19  2  0
 19 20  1  0
 20 21  1  0
 20 22  2  0
 22 23  1  0
 23 24  1  0
 23 25  1  0
 23 26  1  0
 22 27  1  0
 12 28  2  0
 28 29  1  0
 28 30  1  0
  7 31  2  0
 31 32  1  0
 32 33  2  0
 33  5  1  0
 30  9  2  0
 27 17  2  0
  1 34  1  0
  1 35  1  0
  1 36  1  0
  2 37  1  0
  6 38  1  0
 10 39  1  0
 11 40  1  0
 13 41  1  0
 16 42  1  0
 18 43  1  0
 19 44  1  0
 27 45  1  0
 30 46  1  0
 31 47  1  0
 32 48  1  0
M  END
>  <meeko>  (2) 
{"is_sidechain": false}

>  <vina_affinity_kcal_mol>  (2) 
-10.455

>  <pose_rank>  (2) 
2

$$$$

     RDKit          3D

 48 50  0  0  0  0  0  0  0  0999 V2000
  -34.6350  148.6310    2.2900 C   0  0  0  0  0  0  0  0  0  0  0  0
  -34.9030  149.3430    3.5090 N   0  0  0  0  0  0  0  0  0  0  0  0
  -34.9470  148.7170    4.7360 C   0  0  0  0  0  0  0  0  0  0  0  0
  -34.8700  147.5040    4.8940 O   0  0  0  0  0  0  0  0  0  0  0  0
  -35.0910  149.6520    5.8990 C   0  0  0  0  0  0  0  0  0  0  0  0
  -34.7650  150.9910    5.7500 C   0  0  0  0  0  0  0  0  0  0  0  0
  -34.9160  151.8120    6.8630 C   0  0  0  0  0  0  0  0  0  0  0  0
  -34.5820  153.1470    6.8470 O   0  0  0  0  0  0  0  0  0  0  0  0
  -35.4980  154.0080    6.2860 C   0  0  0  0  0  0  0  0  0  0  0  0
  -36.4370  153.4640    5.4110 C   0  0  0  0  0  0  0  0  0  0  0  0
  -37.3690  154.2950    4.7810 C   0  0  0  0  0  0  0  0  0  0  0  0
  -37.3670  155.6740    5.0230 C   0  0  0  0  0  0  0  0  0  0  0  0
  -38.3340  156.4560    4.3510 N   0  0  0  0  0  0  0  0  0  0  0  0
  -38.0800  157.2390    3.2310 C   0  0  0  0  0  0  0  0  0  0  0  0
  -36.9650  157.5250    2.8210 O   0  0  0  0  0  0  0  0  0  0  0  0
  -39.2780  157.6750    2.6860 N   0  0  0  0  0  0  0  0  0  0  0  0
  -39.4540  158.5840    1.6230 C   0  0  0  0  0  0  0  0  0  0  0  0
  -40.2490  159.7250    1.7000 C   0  0  0  0  0  0  0  0  0  0  0  0
  -40.3800  160.5720    0.5940 C   0  0  0  0  0  0  0  0  0  0  0  0
  -39.7200  160.2830   -0.6020 C   0  0  0  0  0  0  0  0  0  0  0  0
  -39.9350  161.3770   -1.9180 Cl  0  0  0  0  0  0  0  0  0  0  0  0
  -38.9230  159.1400   -0.7080 C   0  0  0  0  0  0  0  0  0  0  0  0
  -38.2030  158.7980   -1.9830 C   0  0  0  0  0  0  0  0  0  0  0  0
  -39.0550  158.4710   -3.0000 F   0  0  0  0  0  0  0  0  0  0  0  0
  -37.4510  159.8250   -2.4650 F   0  0  0  0  0  0  0  0  0  0  0  0
  -37.3690  157.7290   -1.8590 F   0  0  0  0  0  0  0  0  0  0  0  0
  -38.8010  158.2970    0.4170 C   0  0  0  0  0  0  0  0  0  0  0  0
  -36.3780  156.2080    5.8610 C   0  0  0  0  0  0  0  0  0  0  0  0
  -36.2310  157.5320    6.0090 F   0  0  0  0  0  0  0  0  0  0  0  0
  -35.4490  155.3850    6.4960 C   0  0  0  0  0  0  0  0  0  0  0  0
  -35.3450  151.2800    8.0740 C   0  0  0  0  0  0  0  0  0  0  0  0
  -35.6520  149.9310    8.1220 C   0  0  0  0  0  0  0  0  0  0  0  0
  -35.5430  149.1000    7.0640 N   0  0  0  0  0  0  0  0  0  0  0  0
  -34.2567  147.6259    2.5280 H   0  0  0  0  0  0  0  0  0  0  0  0
  -35.5621  148.5446    1.7044 H   0  0  0  0  0  0  0  0  0  0  0  0
  -33.8810  149.1774    1.7044 H   0  0  0  0  0  0  0  0  0  0  0  0
  -34.8760  150.3600    3.5290 H   0  0  0  0  0  0  0  0  0  0  0  0
  -34.4017  151.3883    4.7908 H   0  0  0  0  0  0  0  0  0  0  0  0
  -36.4449  152.3814    5.2161 H   0  0  0  0  0  0  0  0  0  0  0  0
  -38.1083  153.8624    4.0909 H   0  0  0  0  0  0  0  0  0  0  0  0
  -39.1200  156.7690    4.9010 H   0  0  0  0  0  0  0  0  0  0  0  0
  -40.0890  157.1420    2.9680 H   0  0  0  0  0  0  0  0  0  0  0  0
  -40.7769  159.9616    2.6356 H   0  0  0  0  0  0  0  0  0  0  0  0
  -41.0077  161.4724    0.6673 H   0  0  0  0  0  0  0  0  0  0  0  0
  -38.1784  157.3930    0.3455 H   0  0  0  0  0  0  0  0  0  0  0  0
  -34.6841  155.8186    7.1570 H   0  0  0  0  0  0  0  0  0  0  0  0
  -35.4378  151.9133    8.9686 H   0  0  0  0  0  0  0  0  0  0  0  0
  -36.0047  149.5127    9.0763 H   0  0  0  0  0  0  0  0  0  0  0  0
  1  2  1  0
  2  3  1  0
  3  4  2  0
  3  5  1  0
  5  6  2  0
  6  7  1  0
  7  8  1  0
  8  9  1  0
  9 10  1  0
 10 11  2  0
 11 12  1  0
 12 13  1  0
 13 14  1  0
 14 15  2  0
 14 16  1  0
 16 17  1  0
 17 18  1  0
 18 19  2  0
 19 20  1  0
 20 21  1  0
 20 22  2  0
 22 23  1  0
 23 24  1  0
 23 25  1  0
 23 26  1  0
 22 27  1  0
 12 28  2  0
 28 29  1  0
 28 30  1  0
  7 31  2  0
 31 32  1  0
 32 33  2  0
 33  5  1  0
 30  9  2  0
 27 17  2  0
  1 34  1  0
  1 35  1  0
  1 36  1  0
  2 37  1  0
  6 38  1  0
 10 39  1  0
 11 40  1  0
 13 41  1  0
 16 42  1  0
 18 43  1  0
 19 44  1  0
 27 45  1  0
 30 46  1  0
 31 47  1  0
 32 48  1  0
M  END
>  <meeko>  (3) 
{"is_sidechain": false}

>  <vina_affinity_kcal_mol>  (3) 
-10.387

>  <pose_rank>  (3) 
3

$$$$

     RDKit          3D

 48 50  0  0  0  0  0  0  0  0999 V2000
  -37.5960  163.8090   -9.0710 C   0  0  0  0  0  0  0  0  0  0  0  0
  -37.7830  163.3990   -7.7070 N   0  0  0  0  0  0  0  0  0  0  0  0
  -38.1050  164.2890   -6.7050 C   0  0  0  0  0  0  0  0  0  0  0  0
  -38.1570  165.5050   -6.8540 O   0  0  0  0  0  0  0  0  0  0  0  0
  -38.4040  163.6480   -5.3840 C   0  0  0  0  0  0  0  0  0  0  0  0
  -38.6470  162.2840   -5.3210 C   0  0  0  0  0  0  0  0  0  0  0  0
  -38.9220  161.7420   -4.0690 C   0  0  0  0  0  0  0  0  0  0  0  0
  -39.2230  160.4110   -3.8890 O   0  0  0  0  0  0  0  0  0  0  0  0
  -39.2980  159.9640   -2.5910 C   0  0  0  0  0  0  0  0  0  0  0  0
  -38.6150  158.7890   -2.2760 C   0  0  0  0  0  0  0  0  0  0  0  0
  -38.6860  158.2650   -0.9810 C   0  0  0  0  0  0  0  0  0  0  0  0
  -39.4400  158.9120    0.0060 C   0  0  0  0  0  0  0  0  0  0  0  0
  -39.4710  158.3270    1.2910 N   0  0  0  0  0  0  0  0  0  0  0  0
  -38.3460  157.9930    2.0360 C   0  0  0  0  0  0  0  0  0  0  0  0
  -37.2070  157.9540    1.5960 O   0  0  0  0  0  0  0  0  0  0  0  0
  -38.7240  157.6690    3.3310 N   0  0  0  0  0  0  0  0  0  0  0  0
  -37.9040  157.1630    4.3600 C   0  0  0  0  0  0  0  0  0  0  0  0
  -37.1110  157.9590    5.1830 C   0  0  0  0  0  0  0  0  0  0  0  0
  -36.3150  157.3770    6.1750 C   0  0  0  0  0  0  0  0  0  0  0  0
  -36.3010  155.9920    6.3520 C   0  0  0  0  0  0  0  0  0  0  0  0
  -35.2930  155.3540    7.5980 Cl  0  0  0  0  0  0  0  0  0  0  0  0
  -37.0820  155.1700    5.5340 C   0  0  0  0  0  0  0  0  0  0  0  0
  -37.0870  153.6750    5.6950 C   0  0  0  0  0  0  0  0  0  0  0  0
  -37.9270  153.0510    4.8160 F   0  0  0  0  0  0  0  0  0  0  0  0
  -35.8670  153.1100    5.4810 F   0  0  0  0  0  0  0  0  0  0  0  0
  -37.4940  153.2690    6.9280 F   0  0  0  0  0  0  0  0  0  0  0  0
  -37.8790  155.7740    4.5370 C   0  0  0  0  0  0  0  0  0  0  0  0
  -40.1650  160.0600   -0.3470 C   0  0  0  0  0  0  0  0  0  0  0  0
  -41.0210  160.6320    0.5110 F   0  0  0  0  0  0  0  0  0  0  0  0
  -40.0950  160.5900   -1.6340 C   0  0  0  0  0  0  0  0  0  0  0  0
  -38.9790  162.5620   -2.9470 C   0  0  0  0  0  0  0  0  0  0  0  0
  -38.7160  163.9110   -3.1100 C   0  0  0  0  0  0  0  0  0  0  0  0
  -38.4230  164.4790   -4.3000 N   0  0  0  0  0  0  0  0  0  0  0  0
  -37.1396  164.8096   -9.0938 H   0  0  0  0  0  0  0  0  0  0  0  0
  -36.9354  163.0930   -9.5818 H   0  0  0  0  0  0  0  0  0  0  0  0
  -38.5698  163.8384   -9.5818 H   0  0  0  0  0  0  0  0  0  0  0  0
  -37.8750  162.4140   -7.4720 H   0  0  0  0  0  0  0  0  0  0  0  0
  -38.6233  161.6561   -6.2239 H   0  0  0  0  0  0  0  0  0  0  0  0
  -38.0208  158.2748   -3.0458 H   0  0  0  0  0  0  0  0  0  0  0  0
  -38.1460  157.3385   -0.7362 H   0  0  0  0  0  0  0  0  0  0  0  0
  -40.2910  157.7830    1.5180 H   0  0  0  0  0  0  0  0  0  0  0  0
  -39.6370  158.0070    3.6020 H   0  0  0  0  0  0  0  0  0  0  0  0
  -37.1107  159.0512    5.0522 H   0  0  0  0  0  0  0  0  0  0  0  0
  -35.6948  158.0157    6.8211 H   0  0  0  0  0  0  0  0  0  0  0  0
  -38.4949  155.1384    3.8838 H   0  0  0  0  0  0  0  0  0  0  0  0
  -40.6642  161.4951   -1.8926 H   0  0  0  0  0  0  0  0  0  0  0  0
  -39.2262  162.1498   -1.9576 H   0  0  0  0  0  0  0  0  0  0  0  0
  -38.7473  164.5571   -2.2203 H   0  0  0  0  0  0  0  0  0  0  0  0
  1  2  1  0
  2  3  1  0
  3  4  2  0
  3  5  1  0
  5  6  2  0
  6  7  1  0
  7  8  1  0
  8  9  1  0
  9 10  1  0
 10 11  2  0
 11 12  1  0
 12 13  1  0
 13 14  1  0
 14 15  2  0
 14 16  1  0
 16 17  1  0
 17 18  1  0
 18 19  2  0
 19 20  1  0
 20 21  1  0
 20 22  2  0
 22 23  1  0
 23 24  1  0
 23 25  1  0
 23 26  1  0
 22 27  1  0
 12 28  2  0
 28 29  1  0
 28 30  1  0
  7 31  2  0
 31 32  1  0
 32 33  2  0
 33  5  1  0
 30  9  2  0
 27 17  2  0
  1 34  1  0
  1 35  1  0
  1 36  1  0
  2 37  1  0
  6 38  1  0
 10 39  1  0
 11 40  1  0
 13 41  1  0
 16 42  1  0
 18 43  1  0
 19 44  1  0
 27 45  1  0
 30 46  1  0
 31 47  1  0
 32 48  1  0
M  END
>  <meeko>  (4) 
{"is_sidechain": false}

>  <vina_affinity_kcal_mol>  (4) 
-10.298

>  <pose_rank>  (4) 
4

$$$$

     RDKit          3D

 48 50  0  0  0  0  0  0  0  0999 V2000
  -38.1560  164.5810   -6.9770 C   0  0  0  0  0  0  0  0  0  0  0  0
  -38.3920  163.5270   -6.0290 N   0  0  0  0  0  0  0  0  0  0  0  0
  -38.1230  163.6700   -4.6840 C   0  0  0  0  0  0  0  0  0  0  0  0
  -37.5700  164.6460   -4.1920 O   0  0  0  0  0  0  0  0  0  0  0  0
  -38.5760  162.5170   -3.8410 C   0  0  0  0  0  0  0  0  0  0  0  0
  -39.3410  162.7510   -2.7080 C   0  0  0  0  0  0  0  0  0  0  0  0
  -39.7310  161.6450   -1.9600 C   0  0  0  0  0  0  0  0  0  0  0  0
  -40.4540  161.7570   -0.7950 O   0  0  0  0  0  0  0  0  0  0  0  0
  -40.2610  160.7760    0.1500 C   0  0  0  0  0  0  0  0  0  0  0  0
  -38.9460  160.4160    0.4420 C   0  0  0  0  0  0  0  0  0  0  0  0
  -38.6890  159.3980    1.3660 C   0  0  0  0  0  0  0  0  0  0  0  0
  -39.7450  158.7360    2.0050 C   0  0  0  0  0  0  0  0  0  0  0  0
  -39.4140  157.7160    2.9250 N   0  0  0  0  0  0  0  0  0  0  0  0
  -38.1240  157.2670    3.1790 C   0  0  0  0  0  0  0  0  0  0  0  0
  -37.1480  157.5310    2.4940 O   0  0  0  0  0  0  0  0  0  0  0  0
  -38.1290  156.4430    4.2950 N   0  0  0  0  0  0  0  0  0  0  0  0
  -37.0510  155.6930    4.8090 C   0  0  0  0  0  0  0  0  0  0  0  0
  -35.7740  156.2100    5.0140 C   0  0  0  0  0  0  0  0  0  0  0  0
  -34.7550  155.3960    5.5190 C   0  0  0  0  0  0  0  0  0  0  0  0
  -35.0010  154.0540    5.8180 C   0  0  0  0  0  0  0  0  0  0  0  0
  -33.6900  153.1180    6.4350 Cl  0  0  0  0  0  0  0  0  0  0  0  0
  -36.2720  153.5090    5.6130 C   0  0  0  0  0  0  0  0  0  0  0  0
  -36.5690  152.0680    5.9200 C   0  0  0  0  0  0  0  0  0  0  0  0
  -37.8390  151.7040    5.5740 F   0  0  0  0  0  0  0  0  0  0  0  0
  -35.7570  151.2000    5.2560 F   0  0  0  0  0  0  0  0  0  0  0  0
  -36.4600  151.7670    7.2430 F   0  0  0  0  0  0  0  0  0  0  0  0
  -37.2890  154.3450    5.1040 C   0  0  0  0  0  0  0  0  0  0  0  0
  -41.0600  159.0750    1.6550 C   0  0  0  0  0  0  0  0  0  0  0  0
  -42.1050  158.3750    2.1160 F   0  0  0  0  0  0  0  0  0  0  0  0
  -41.3230  160.0910    0.7380 C   0  0  0  0  0  0  0  0  0  0  0  0
  -39.3290  160.3670   -2.3360 C   0  0  0  0  0  0  0  0  0  0  0  0
  -38.5710  160.2340   -3.4870 C   0  0  0  0  0  0  0  0  0  0  0  0
  -38.1860  161.2750   -4.2560 N   0  0  0  0  0  0  0  0  0  0  0  0
  -37.9463  165.5175   -6.4394 H   0  0  0  0  0  0  0  0  0  0  0  0
  -37.2941  164.3199   -7.6086 H   0  0  0  0  0  0  0  0  0  0  0  0
  -39.0470  164.7124   -7.6086 H   0  0  0  0  0  0  0  0  0  0  0  0
  -38.9450  162.7140   -6.2880 H   0  0  0  0  0  0  0  0  0  0  0  0
  -39.6280  163.7710   -2.4126 H   0  0  0  0  0  0  0  0  0  0  0  0
  -38.1110  160.9324   -0.0541 H   0  0  0  0  0  0  0  0  0  0  0  0
  -37.6503  159.1153    1.5924 H   0  0  0  0  0  0  0  0  0  0  0  0
  -40.1330  157.0330    3.1160 H   0  0  0  0  0  0  0  0  0  0  0  0
  -38.9370  156.5450    4.8920 H   0  0  0  0  0  0  0  0  0  0  0  0
  -35.5659  157.2639    4.7775 H   0  0  0  0  0  0  0  0  0  0  0  0
  -33.7515  155.8161    5.6821 H   0  0  0  0  0  0  0  0  0  0  0  0
  -38.2926  153.9276    4.9350 H   0  0  0  0  0  0  0  0  0  0  0  0
  -42.3605  160.3503    0.4803 H   0  0  0  0  0  0  0  0  0  0  0  0
  -39.6055  159.4875   -1.7359 H   0  0  0  0  0  0  0  0  0  0  0  0
  -38.2650  159.2225   -3.7924 H   0  0  0  0  0  0  0  0  0  0  0  0
  1  2  1  0
  2  3  1  0
  3  4  2  0
  3  5  1  0
  5  6  2  0
  6  7  1  0
  7  8  1  0
  8  9  1  0
  9 10  1  0
 10 11  2  0
 11 12  1  0
 12 13  1  0
 13 14  1  0
 14 15  2  0
 14 16  1  0
 16 17  1  0
 17 18  1  0
 18 19  2  0
 19 20  1  0
 20 21  1  0
 20 22  2  0
 22 23  1  0
 23 24  1  0
 23 25  1  0
 23 26  1  0
 22 27  1  0
 12 28  2  0
 28 29  1  0
 28 30  1  0
  7 31  2  0
 31 32  1  0
 32 33  2  0
 33  5  1  0
 30  9  2  0
 27 17  2  0
  1 34  1  0
  1 35  1  0
  1 36  1  0
  2 37  1  0
  6 38  1  0
 10 39  1  0
 11 40  1  0
 13 41  1  0
 16 42  1  0
 18 43  1  0
 19 44  1  0
 27 45  1  0
 30 46  1  0
 31 47  1  0
 32 48  1  0
M  END
>  <meeko>  (5) 
{"is_sidechain": false}

>  <vina_affinity_kcal_mol>  (5) 
-10.28

>  <pose_rank>  (5) 
5

$$$$

     RDKit          3D

 48 50  0  0  0  0  0  0  0  0999 V2000
  -37.9630  164.7490   -8.1310 C   0  0  0  0  0  0  0  0  0  0  0  0
  -38.1660  163.7840   -7.0860 N   0  0  0  0  0  0  0  0  0  0  0  0
  -38.3050  164.1450   -5.7630 C   0  0  0  0  0  0  0  0  0  0  0  0
  -38.1660  165.2880   -5.3420 O   0  0  0  0  0  0  0  0  0  0  0  0
  -38.6580  163.0110   -4.8490 C   0  0  0  0  0  0  0  0  0  0  0  0
  -39.0060  163.2710   -3.5330 C   0  0  0  0  0  0  0  0  0  0  0  0
  -39.3210  162.1810   -2.7280 C   0  0  0  0  0  0  0  0  0  0  0  0
  -39.6390  162.3120   -1.3950 O   0  0  0  0  0  0  0  0  0  0  0  0
  -39.5190  161.1850   -0.6160 C   0  0  0  0  0  0  0  0  0  0  0  0
  -38.2600  160.5900   -0.5370 C   0  0  0  0  0  0  0  0  0  0  0  0
  -38.0850  159.4210    0.2090 C   0  0  0  0  0  0  0  0  0  0  0  0
  -39.1680  158.8390    0.8810 C   0  0  0  0  0  0  0  0  0  0  0  0
  -38.9220  157.6560    1.6140 N   0  0  0  0  0  0  0  0  0  0  0  0
  -37.9890  157.5400    2.6380 C   0  0  0  0  0  0  0  0  0  0  0  0
  -37.1210  158.3620    2.8850 O   0  0  0  0  0  0  0  0  0  0  0  0
  -38.1710  156.3330    3.2980 N   0  0  0  0  0  0  0  0  0  0  0  0
  -37.3610  155.7830    4.3120 C   0  0  0  0  0  0  0  0  0  0  0  0
  -37.7660  154.7490    5.1530 C   0  0  0  0  0  0  0  0  0  0  0  0
  -36.9040  154.2650    6.1430 C   0  0  0  0  0  0  0  0  0  0  0  0
  -35.6300  154.8130    6.3060 C   0  0  0  0  0  0  0  0  0  0  0  0
  -34.6300  154.1610    7.5500 Cl  0  0  0  0  0  0  0  0  0  0  0  0
  -35.2030  155.8570    5.4790 C   0  0  0  0  0  0  0  0  0  0  0  0
  -33.8400  156.4730    5.6310 C   0  0  0  0  0  0  0  0  0  0  0  0
  -33.6710  157.0940    6.8360 F   0  0  0  0  0  0  0  0  0  0  0  0
  -32.8300  155.5640    5.5550 F   0  0  0  0  0  0  0  0  0  0  0  0
  -33.5750  157.4280    4.6980 F   0  0  0  0  0  0  0  0  0  0  0  0
  -36.0850  156.3330    4.4850 C   0  0  0  0  0  0  0  0  0  0  0  0
  -40.4360  159.4210    0.7410 C   0  0  0  0  0  0  0  0  0  0  0  0
  -41.5320  158.8260    1.2330 F   0  0  0  0  0  0  0  0  0  0  0  0
  -40.6170  160.5890    0.0030 C   0  0  0  0  0  0  0  0  0  0  0  0
  -39.2490  160.8890   -3.2380 C   0  0  0  0  0  0  0  0  0  0  0  0
  -38.8960  160.7310   -4.5670 C   0  0  0  0  0  0  0  0  0  0  0  0
  -38.6030  161.7590   -5.3930 N   0  0  0  0  0  0  0  0  0  0  0  0
  -37.7559  165.7334   -7.6859 H   0  0  0  0  0  0  0  0  0  0  0  0
  -37.1099  164.4413   -8.7536 H   0  0  0  0  0  0  0  0  0  0  0  0
  -38.8677  164.8111   -8.7536 H   0  0  0  0  0  0  0  0  0  0  0  0
  -38.4080  162.8220   -7.3120 H   0  0  0  0  0  0  0  0  0  0  0  0
  -39.0321  164.2983   -3.1406 H   0  0  0  0  0  0  0  0  0  0  0  0
  -37.4048  161.0407   -1.0618 H   0  0  0  0  0  0  0  0  0  0  0  0
  -37.0905  158.9549    0.2689 H   0  0  0  0  0  0  0  0  0  0  0  0
  -39.1310  156.7860    1.1470 H   0  0  0  0  0  0  0  0  0  0  0  0
  -39.0760  155.9070    3.1570 H   0  0  0  0  0  0  0  0  0  0  0  0
  -38.7684  154.3109    5.0382 H   0  0  0  0  0  0  0  0  0  0  0  0
  -37.2328  153.4454    6.7989 H   0  0  0  0  0  0  0  0  0  0  0  0
  -35.7621  157.1560    3.8304 H   0  0  0  0  0  0  0  0  0  0  0  0
  -41.6173  161.0369   -0.0904 H   0  0  0  0  0  0  0  0  0  0  0  0
  -39.4664  160.0174   -2.6031 H   0  0  0  0  0  0  0  0  0  0  0  0
  -38.8515  159.7100   -4.9739 H   0  0  0  0  0  0  0  0  0  0  0  0
  1  2  1  0
  2  3  1  0
  3  4  2  0
  3  5  1  0
  5  6  2  0
  6  7  1  0
  7  8  1  0
  8  9  1  0
  9 10  1  0
 10 11  2  0
 11 12  1  0
 12 13  1  0
 13 14  1  0
 14 15  2  0
 14 16  1  0
 16 17  1  0
 17 18  1  0
 18 19  2  0
 19 20  1  0
 20 21  1  0
 20 22  2  0
 22 23  1  0
 23 24  1  0
 23 25  1  0
 23 26  1  0
 22 27  1  0
 12 28  2  0
 28 29  1  0
 28 30  1  0
  7 31  2  0
 31 32  1  0
 32 33  2  0
 33  5  1  0
 30  9  2  0
 27 17  2  0
  1 34  1  0
  1 35  1  0
  1 36  1  0
  2 37  1  0
  6 38  1  0
 10 39  1  0
 11 40  1  0
 13 41  1  0
 16 42  1  0
 18 43  1  0
 19 44  1  0
 27 45  1  0
 30 46  1  0
 31 47  1  0
 32 48  1  0
M  END
>  <meeko>  (6) 
{"is_sidechain": false}

>  <vina_affinity_kcal_mol>  (6) 
-10.024

>  <pose_rank>  (6) 
6

$$$$

     RDKit          3D

 48 50  0  0  0  0  0  0  0  0999 V2000
  -33.7610  152.7690    5.1440 C   0  0  0  0  0  0  0  0  0  0  0  0
  -34.6630  153.8870    5.1140 N   0  0  0  0  0  0  0  0  0  0  0  0
  -34.3220  155.1250    5.6160 C   0  0  0  0  0  0  0  0  0  0  0  0
  -33.2830  155.3610    6.2210 O   0  0  0  0  0  0  0  0  0  0  0  0
  -35.3390  156.1950    5.3560 C   0  0  0  0  0  0  0  0  0  0  0  0
  -36.5300  155.8740    4.7230 C   0  0  0  0  0  0  0  0  0  0  0  0
  -37.4360  156.9070    4.5040 C   0  0  0  0  0  0  0  0  0  0  0  0
  -38.6300  156.7180    3.8470 O   0  0  0  0  0  0  0  0  0  0  0  0
  -38.9390  157.6170    2.8530 C   0  0  0  0  0  0  0  0  0  0  0  0
  -37.9040  158.0280    2.0140 C   0  0  0  0  0  0  0  0  0  0  0  0
  -38.1510  158.9690    1.0100 C   0  0  0  0  0  0  0  0  0  0  0  0
  -39.4330  159.5050    0.8390 C   0  0  0  0  0  0  0  0  0  0  0  0
  -39.6120  160.4540   -0.1930 N   0  0  0  0  0  0  0  0  0  0  0  0
  -38.9930  160.3960   -1.4370 C   0  0  0  0  0  0  0  0  0  0  0  0
  -38.0610  159.6570   -1.7170 O   0  0  0  0  0  0  0  0  0  0  0  0
  -39.5660  161.3320   -2.2850 N   0  0  0  0  0  0  0  0  0  0  0  0
  -39.1480  161.6750   -3.5870 C   0  0  0  0  0  0  0  0  0  0  0  0
  -39.0010  160.7540   -4.6230 C   0  0  0  0  0  0  0  0  0  0  0  0
  -38.5710  161.1730   -5.8860 C   0  0  0  0  0  0  0  0  0  0  0  0
  -38.2770  162.5170   -6.1260 C   0  0  0  0  0  0  0  0  0  0  0  0
  -37.7510  162.9510   -7.7100 Cl  0  0  0  0  0  0  0  0  0  0  0  0
  -38.4080  163.4590   -5.1010 C   0  0  0  0  0  0  0  0  0  0  0  0
  -38.0950  164.9130   -5.3250 C   0  0  0  0  0  0  0  0  0  0  0  0
  -38.6030  165.3880   -6.5010 F   0  0  0  0  0  0  0  0  0  0  0  0
  -38.6090  165.7260   -4.3620 F   0  0  0  0  0  0  0  0  0  0  0  0
  -36.7600  165.1720   -5.3820 F   0  0  0  0  0  0  0  0  0  0  0  0
  -38.8440  163.0200   -3.8330 C   0  0  0  0  0  0  0  0  0  0  0  0
  -40.4460  159.1210    1.7290 C   0  0  0  0  0  0  0  0  0  0  0  0
  -41.6490  159.7120    1.7110 F   0  0  0  0  0  0  0  0  0  0  0  0
  -40.2080  158.1800    2.7300 C   0  0  0  0  0  0  0  0  0  0  0  0
  -37.1200  158.2080    4.8840 C   0  0  0  0  0  0  0  0  0  0  0  0
  -35.9080  158.4280    5.5150 C   0  0  0  0  0  0  0  0  0  0  0  0
  -35.0070  157.4550    5.7680 N   0  0  0  0  0  0  0  0  0  0  0  0
  -33.5444  152.5005    6.1885 H   0  0  0  0  0  0  0  0  0  0  0  0
  -34.2230  151.9113    4.6332 H   0  0  0  0  0  0  0  0  0  0  0  0
  -32.8250  153.0392    4.6332 H   0  0  0  0  0  0  0  0  0  0  0  0
  -35.5070  153.8540    4.5470 H   0  0  0  0  0  0  0  0  0  0  0  0
  -36.7499  154.8437    4.4065 H   0  0  0  0  0  0  0  0  0  0  0  0
  -36.8937  157.6121    2.1420 H   0  0  0  0  0  0  0  0  0  0  0  0
  -37.3322  159.2906    0.3496 H   0  0  0  0  0  0  0  0  0  0  0  0
  -39.8740  161.3860    0.0930 H   0  0  0  0  0  0  0  0  0  0  0  0
  -40.4770  161.6600   -2.0000 H   0  0  0  0  0  0  0  0  0  0  0  0
  -39.2245  159.6916   -4.4460 H   0  0  0  0  0  0  0  0  0  0  0  0
  -38.4634  160.4379   -6.6972 H   0  0  0  0  0  0  0  0  0  0  0  0
  -38.9477  163.7515   -3.0181 H   0  0  0  0  0  0  0  0  0  0  0  0
  -41.0149  157.8845    3.4167 H   0  0  0  0  0  0  0  0  0  0  0  0
  -37.8143  159.0384    4.6883 H   0  0  0  0  0  0  0  0  0  0  0  0
  -35.6650  159.4541    5.8282 H   0  0  0  0  0  0  0  0  0  0  0  0
  1  2  1  0
  2  3  1  0
  3  4  2  0
  3  5  1  0
  5  6  2  0
  6  7  1  0
  7  8  1  0
  8  9  1  0
  9 10  1  0
 10 11  2  0
 11 12  1  0
 12 13  1  0
 13 14  1  0
 14 15  2  0
 14 16  1  0
 16 17  1  0
 17 18  1  0
 18 19  2  0
 19 20  1  0
 20 21  1  0
 20 22  2  0
 22 23  1  0
 23 24  1  0
 23 25  1  0
 23 26  1  0
 22 27  1  0
 12 28  2  0
 28 29  1  0
 28 30  1  0
  7 31  2  0
 31 32  1  0
 32 33  2  0
 33  5  1  0
 30  9  2  0
 27 17  2  0
  1 34  1  0
  1 35  1  0
  1 36  1  0
  2 37  1  0
  6 38  1  0
 10 39  1  0
 11 40  1  0
 13 41  1  0
 16 42  1  0
 18 43  1  0
 19 44  1  0
 27 45  1  0
 30 46  1  0
 31 47  1  0
 32 48  1  0
M  END
>  <meeko>  (7) 
{"is_sidechain": false}

>  <vina_affinity_kcal_mol>  (7) 
-9.84

>  <pose_rank>  (7) 
7

$$$$

     RDKit          3D

 48 50  0  0  0  0  0  0  0  0999 V2000
  -33.5700  169.2310  -11.7430 C   0  0  0  0  0  0  0  0  0  0  0  0
  -33.9990  167.9040  -11.3970 N   0  0  0  0  0  0  0  0  0  0  0  0
  -35.3200  167.5960  -11.1490 C   0  0  0  0  0  0  0  0  0  0  0  0
  -36.2230  168.4230  -11.0950 O   0  0  0  0  0  0  0  0  0  0  0  0
  -35.5840  166.1330  -10.9530 C   0  0  0  0  0  0  0  0  0  0  0  0
  -36.7930  165.7180  -10.4160 C   0  0  0  0  0  0  0  0  0  0  0  0
  -36.9840  164.3500  -10.2540 C   0  0  0  0  0  0  0  0  0  0  0  0
  -38.1240  163.8240   -9.6910 O   0  0  0  0  0  0  0  0  0  0  0  0
  -38.0460  163.4520   -8.3680 C   0  0  0  0  0  0  0  0  0  0  0  0
  -37.8780  162.0960   -8.0920 C   0  0  0  0  0  0  0  0  0  0  0  0
  -37.8310  161.6530   -6.7660 C   0  0  0  0  0  0  0  0  0  0  0  0
  -37.9510  162.5640   -5.7090 C   0  0  0  0  0  0  0  0  0  0  0  0
  -37.8970  162.0490   -4.3950 N   0  0  0  0  0  0  0  0  0  0  0  0
  -39.0080  161.7240   -3.6260 C   0  0  0  0  0  0  0  0  0  0  0  0
  -40.1570  162.0420   -3.8940 O   0  0  0  0  0  0  0  0  0  0  0  0
  -38.6050  161.0270   -2.4960 N   0  0  0  0  0  0  0  0  0  0  0  0
  -39.4070  160.6240   -1.4090 C   0  0  0  0  0  0  0  0  0  0  0  0
  -40.7520  160.9570   -1.2710 C   0  0  0  0  0  0  0  0  0  0  0  0
  -41.4770  160.5260   -0.1550 C   0  0  0  0  0  0  0  0  0  0  0  0
  -40.8620  159.7620    0.8390 C   0  0  0  0  0  0  0  0  0  0  0  0
  -41.8250  159.2720    2.1830 Cl  0  0  0  0  0  0  0  0  0  0  0  0
  -39.5100  159.4210    0.7280 C   0  0  0  0  0  0  0  0  0  0  0  0
  -38.8160  158.6040    1.7820 C   0  0  0  0  0  0  0  0  0  0  0  0
  -37.4880  158.4180    1.5190 F   0  0  0  0  0  0  0  0  0  0  0  0
  -38.8580  159.1750    3.0170 F   0  0  0  0  0  0  0  0  0  0  0  0
  -39.3310  157.3510    1.9150 F   0  0  0  0  0  0  0  0  0  0  0  0
  -38.7940  159.8640   -0.4050 C   0  0  0  0  0  0  0  0  0  0  0  0
  -38.1760  163.9150   -6.0090 C   0  0  0  0  0  0  0  0  0  0  0  0
  -38.4500  164.8050   -5.0460 F   0  0  0  0  0  0  0  0  0  0  0  0
  -38.2200  164.3640   -7.3280 C   0  0  0  0  0  0  0  0  0  0  0  0
  -35.9730  163.4560  -10.5930 C   0  0  0  0  0  0  0  0  0  0  0  0
  -34.8030  163.9660  -11.1280 C   0  0  0  0  0  0  0  0  0  0  0  0
  -34.5810  165.2830  -11.3250 N   0  0  0  0  0  0  0  0  0  0  0  0
  -33.3837  169.8072  -10.8247 H   0  0  0  0  0  0  0  0  0  0  0  0
  -32.6443  169.1745  -12.3346 H   0  0  0  0  0  0  0  0  0  0  0  0
  -34.3535  169.7271  -12.3346 H   0  0  0  0  0  0  0  0  0  0  0  0
  -33.3730  167.1120  -11.5140 H   0  0  0  0  0  0  0  0  0  0  0  0
  -37.5701  166.4419  -10.1295 H   0  0  0  0  0  0  0  0  0  0  0  0
  -37.7824  161.3745   -8.9168 H   0  0  0  0  0  0  0  0  0  0  0  0
  -37.6989  160.5821   -6.5520 H   0  0  0  0  0  0  0  0  0  0  0  0
  -37.0770  162.2810   -3.8540 H   0  0  0  0  0  0  0  0  0  0  0  0
  -37.6840  160.6170   -2.5590 H   0  0  0  0  0  0  0  0  0  0  0  0
  -41.2474  161.5626   -2.0442 H   0  0  0  0  0  0  0  0  0  0  0  0
  -42.5403  160.7911   -0.0597 H   0  0  0  0  0  0  0  0  0  0  0  0
  -37.7290  159.6061   -0.5016 H   0  0  0  0  0  0  0  0  0  0  0  0
  -38.3905  165.4285   -7.5463 H   0  0  0  0  0  0  0  0  0  0  0  0
  -36.1002  162.3741  -10.4400 H   0  0  0  0  0  0  0  0  0  0  0  0
  -34.0090  163.2583  -11.4086 H   0  0  0  0  0  0  0  0  0  0  0  0
  1  2  1  0
  2  3  1  0
  3  4  2  0
  3  5  1  0
  5  6  2  0
  6  7  1  0
  7  8  1  0
  8  9  1  0
  9 10  1  0
 10 11  2  0
 11 12  1  0
 12 13  1  0
 13 14  1  0
 14 15  2  0
 14 16  1  0
 16 17  1  0
 17 18  1  0
 18 19  2  0
 19 20  1  0
 20 21  1  0
 20 22  2  0
 22 23  1  0
 23 24  1  0
 23 25  1  0
 23 26  1  0
 22 27  1  0
 12 28  2  0
 28 29  1  0
 28 30  1  0
  7 31  2  0
 31 32  1  0
 32 33  2  0
 33  5  1  0
 30  9  2  0
 27 17  2  0
  1 34  1  0
  1 35  1  0
  1 36  1  0
  2 37  1  0
  6 38  1  0
 10 39  1  0
 11 40  1  0
 13 41  1  0
 16 42  1  0
 18 43  1  0
 19 44  1  0
 27 45  1  0
 30 46  1  0
 31 47  1  0
 32 48  1  0
M  END
>  <meeko>  (8) 
{"is_sidechain": false}

>  <vina_affinity_kcal_mol>  (8) 
-9.717

>  <pose_rank>  (8) 
8

$$$$

     RDKit          3D

 48 50  0  0  0  0  0  0  0  0999 V2000
  -37.1910  161.9980   -9.4010 C   0  0  0  0  0  0  0  0  0  0  0  0
  -37.6630  162.3910   -8.1020 N   0  0  0  0  0  0  0  0  0  0  0  0
  -36.9780  162.0880   -6.9440 C   0  0  0  0  0  0  0  0  0  0  0  0
  -35.9790  161.3790   -6.8990 O   0  0  0  0  0  0  0  0  0  0  0  0
  -37.5520  162.7130   -5.7080 C   0  0  0  0  0  0  0  0  0  0  0  0
  -38.5510  162.0560   -5.0060 C   0  0  0  0  0  0  0  0  0  0  0  0
  -39.0490  162.6820   -3.8680 C   0  0  0  0  0  0  0  0  0  0  0  0
  -40.0710  162.1470   -3.1170 O   0  0  0  0  0  0  0  0  0  0  0  0
  -39.7300  161.1620   -2.2190 C   0  0  0  0  0  0  0  0  0  0  0  0
  -38.7400  160.2580   -2.6040 C   0  0  0  0  0  0  0  0  0  0  0  0
  -38.3780  159.2130   -1.7490 C   0  0  0  0  0  0  0  0  0  0  0  0
  -39.0030  159.0660   -0.5040 C   0  0  0  0  0  0  0  0  0  0  0  0
  -38.5910  157.9860    0.3090 N   0  0  0  0  0  0  0  0  0  0  0  0
  -38.3020  158.0820    1.6660 C   0  0  0  0  0  0  0  0  0  0  0  0
  -38.1530  159.1320    2.2730 O   0  0  0  0  0  0  0  0  0  0  0  0
  -38.1670  156.8110    2.2040 N   0  0  0  0  0  0  0  0  0  0  0  0
  -37.7590  156.4750    3.5110 C   0  0  0  0  0  0  0  0  0  0  0  0
  -37.8500  155.1930    4.0470 C   0  0  0  0  0  0  0  0  0  0  0  0
  -37.4320  154.9440    5.3590 C   0  0  0  0  0  0  0  0  0  0  0  0
  -36.9240  155.9760    6.1500 C   0  0  0  0  0  0  0  0  0  0  0  0
  -36.4330  155.5850    7.7570 Cl  0  0  0  0  0  0  0  0  0  0  0  0
  -36.8300  157.2730    5.6380 C   0  0  0  0  0  0  0  0  0  0  0  0
  -36.2920  158.4080    6.4650 C   0  0  0  0  0  0  0  0  0  0  0  0
  -37.1010  158.7230    7.5200 F   0  0  0  0  0  0  0  0  0  0  0  0
  -35.0770  158.1390    7.0170 F   0  0  0  0  0  0  0  0  0  0  0  0
  -36.1530  159.5660    5.7630 F   0  0  0  0  0  0  0  0  0  0  0  0
  -37.2550  157.5070    4.3130 C   0  0  0  0  0  0  0  0  0  0  0  0
  -40.0340  159.9510   -0.1610 C   0  0  0  0  0  0  0  0  0  0  0  0
  -40.7700  159.7680    0.9450 F   0  0  0  0  0  0  0  0  0  0  0  0
  -40.3970  160.9980   -1.0070 C   0  0  0  0  0  0  0  0  0  0  0  0
  -38.5720  163.9330   -3.4900 C   0  0  0  0  0  0  0  0  0  0  0  0
  -37.5680  164.5060   -4.2520 C   0  0  0  0  0  0  0  0  0  0  0  0
  -37.0380  163.9270   -5.3510 N   0  0  0  0  0  0  0  0  0  0  0  0
  -36.3501  161.2978   -9.2892 H   0  0  0  0  0  0  0  0  0  0  0  0
  -38.0055  161.5075   -9.9541 H   0  0  0  0  0  0  0  0  0  0  0  0
  -36.8561  162.8879   -9.9541 H   0  0  0  0  0  0  0  0  0  0  0  0
  -38.4130  163.0710   -8.0090 H   0  0  0  0  0  0  0  0  0  0  0  0
  -38.9343  161.0791   -5.3357 H   0  0  0  0  0  0  0  0  0  0  0  0
  -38.2444  160.3673   -3.5799 H   0  0  0  0  0  0  0  0  0  0  0  0
  -37.5972  158.5015   -2.0559 H   0  0  0  0  0  0  0  0  0  0  0  0
  -38.1210  157.2250   -0.1580 H   0  0  0  0  0  0  0  0  0  0  0  0
  -38.5810  156.0730    1.6530 H   0  0  0  0  0  0  0  0  0  0  0  0
  -38.2526  154.3718    3.4359 H   0  0  0  0  0  0  0  0  0  0  0  0
  -37.5043  153.9265    5.7706 H   0  0  0  0  0  0  0  0  0  0  0  0
  -37.1890  158.5243    3.8999 H   0  0  0  0  0  0  0  0  0  0  0  0
  -41.2034  161.6889   -0.7199 H   0  0  0  0  0  0  0  0  0  0  0  0
  -38.9809  164.4522   -2.6107 H   0  0  0  0  0  0  0  0  0  0  0  0
  -37.1801  165.4884   -3.9449 H   0  0  0  0  0  0  0  0  0  0  0  0
  1  2  1  0
  2  3  1  0
  3  4  2  0
  3  5  1  0
  5  6  2  0
  6  7  1  0
  7  8  1  0
  8  9  1  0
  9 10  1  0
 10 11  2  0
 11 12  1  0
 12 13  1  0
 13 14  1  0
 14 15  2  0
 14 16  1  0
 16 17  1  0
 17 18  1  0
 18 19  2  0
 19 20  1  0
 20 21  1  0
 20 22  2  0
 22 23  1  0
 23 24  1  0
 23 25  1  0
 23 26  1  0
 22 27  1  0
 12 28  2  0
 28 29  1  0
 28 30  1  0
  7 31  2  0
 31 32  1  0
 32 33  2  0
 33  5  1  0
 30  9  2  0
 27 17  2  0
  1 34  1  0
  1 35  1  0
  1 36  1  0
  2 37  1  0
  6 38  1  0
 10 39  1  0
 11 40  1  0
 13 41  1  0
 16 42  1  0
 18 43  1  0
 19 44  1  0
 27 45  1  0
 30 46  1  0
 31 47  1  0
 32 48  1  0
M  END
>  <meeko>  (9) 
{"is_sidechain": false}

>  <vina_affinity_kcal_mol>  (9) 
-9.641

>  <pose_rank>  (9) 
9

$$$$

     RDKit          3D

 48 50  0  0  0  0  0  0  0  0999 V2000
  -38.2170  147.0190    8.8250 C   0  0  0  0  0  0  0  0  0  0  0  0
  -37.5840  148.0600    8.0640 N   0  0  0  0  0  0  0  0  0  0  0  0
  -36.3920  148.6360    8.4490 C   0  0  0  0  0  0  0  0  0  0  0  0
  -35.8210  148.3990    9.5070 O   0  0  0  0  0  0  0  0  0  0  0  0
  -35.8200  149.5950    7.4480 C   0  0  0  0  0  0  0  0  0  0  0  0
  -35.6000  150.9150    7.8080 C   0  0  0  0  0  0  0  0  0  0  0  0
  -35.0700  151.7620    6.8390 C   0  0  0  0  0  0  0  0  0  0  0  0
  -34.8510  153.1010    7.0670 O   0  0  0  0  0  0  0  0  0  0  0  0
  -35.7110  153.9830    6.4560 C   0  0  0  0  0  0  0  0  0  0  0  0
  -36.5860  153.4670    5.5000 C   0  0  0  0  0  0  0  0  0  0  0  0
  -37.4580  154.3210    4.8180 C   0  0  0  0  0  0  0  0  0  0  0  0
  -37.4610  155.6960    5.0870 C   0  0  0  0  0  0  0  0  0  0  0  0
  -38.3650  156.5010    4.3600 N   0  0  0  0  0  0  0  0  0  0  0  0
  -38.0090  157.3450    3.3140 C   0  0  0  0  0  0  0  0  0  0  0  0
  -36.8630  157.6640    3.0370 O   0  0  0  0  0  0  0  0  0  0  0  0
  -39.1520  157.7970    2.6710 N   0  0  0  0  0  0  0  0  0  0  0  0
  -39.2310  158.7580    1.6430 C   0  0  0  0  0  0  0  0  0  0  0  0
  -39.7690  160.0320    1.8110 C   0  0  0  0  0  0  0  0  0  0  0  0
  -39.8210  160.9250    0.7360 C   0  0  0  0  0  0  0  0  0  0  0  0
  -39.3390  160.5520   -0.5200 C   0  0  0  0  0  0  0  0  0  0  0  0
  -39.4410  161.7120   -1.7930 Cl  0  0  0  0  0  0  0  0  0  0  0  0
  -38.8020  159.2770   -0.7170 C   0  0  0  0  0  0  0  0  0  0  0  0
  -38.2790  158.8420   -2.0580 C   0  0  0  0  0  0  0  0  0  0  0  0
  -37.4510  159.7680   -2.6290 F   0  0  0  0  0  0  0  0  0  0  0  0
  -37.5450  157.6970   -2.0020 F   0  0  0  0  0  0  0  0  0  0  0  0
  -39.2620  158.6300   -2.9750 F   0  0  0  0  0  0  0  0  0  0  0  0
  -38.7570  158.3880    0.3780 C   0  0  0  0  0  0  0  0  0  0  0  0
  -36.5340  156.2010    6.0100 C   0  0  0  0  0  0  0  0  0  0  0  0
  -36.3860  157.5200    6.1960 F   0  0  0  0  0  0  0  0  0  0  0  0
  -35.6650  155.3550    6.6970 C   0  0  0  0  0  0  0  0  0  0  0  0
  -34.8130  151.2860    5.5580 C   0  0  0  0  0  0  0  0  0  0  0  0
  -35.0600  149.9500    5.2960 C   0  0  0  0  0  0  0  0  0  0  0  0
  -35.5530  149.0850    6.2090 N   0  0  0  0  0  0  0  0  0  0  0  0
  -38.0931  147.2227    9.8988 H   0  0  0  0  0  0  0  0  0  0  0  0
  -39.2887  146.9852    8.5794 H   0  0  0  0  0  0  0  0  0  0  0  0
  -37.7539  146.0519    8.5794 H   0  0  0  0  0  0  0  0  0  0  0  0
  -37.8940  148.2700    7.1180 H   0  0  0  0  0  0  0  0  0  0  0  0
  -35.8348  151.2788    8.8192 H   0  0  0  0  0  0  0  0  0  0  0  0
  -36.5899  152.3887    5.2828 H   0  0  0  0  0  0  0  0  0  0  0  0
  -38.1466  153.9104    4.0649 H   0  0  0  0  0  0  0  0  0  0  0  0
  -39.2090  156.7760    4.8410 H   0  0  0  0  0  0  0  0  0  0  0  0
  -39.9790  157.2410    2.8380 H   0  0  0  0  0  0  0  0  0  0  0  0
  -40.1551  160.3373    2.7947 H   0  0  0  0  0  0  0  0  0  0  0  0
  -40.2451  161.9295    0.8813 H   0  0  0  0  0  0  0  0  0  0  0  0
  -38.3397  157.3804    0.2347 H   0  0  0  0  0  0  0  0  0  0  0  0
  -34.9488  155.7668    7.4233 H   0  0  0  0  0  0  0  0  0  0  0  0
  -34.4241  151.9531    4.7746 H   0  0  0  0  0  0  0  0  0  0  0  0
  -34.8425  149.5706    4.2867 H   0  0  0  0  0  0  0  0  0  0  0  0
  1  2  1  0
  2  3  1  0
  3  4  2  0
  3  5  1  0
  5  6  2  0
  6  7  1  0
  7  8  1  0
  8  9  1  0
  9 10  1  0
 10 11  2  0
 11 12  1  0
 12 13  1  0
 13 14  1  0
 14 15  2  0
 14 16  1  0
 16 17  1  0
 17 18  1  0
 18 19  2  0
 19 20  1  0
 20 21  1  0
 20 22  2  0
 22 23  1  0
 23 24  1  0
 23 25  1  0
 23 26  1  0
 22 27  1  0
 12 28  2  0
 28 29  1  0
 28 30  1  0
  7 31  2  0
 31 32  1  0
 32 33  2  0
 33  5  1  0
 30  9  2  0
 27 17  2  0
  1 34  1  0
  1 35  1  0
  1 36  1  0
  2 37  1  0
  6 38  1  0
 10 39  1  0
 11 40  1  0
 13 41  1  0
 16 42  1  0
 18 43  1  0
 19 44  1  0
 27 45  1  0
 30 46  1  0
 31 47  1  0
 32 48  1  0
M  END
>  <meeko>  (10) 
{"is_sidechain": false}

>  <vina_affinity_kcal_mol>  (10) 
-9.472

>  <pose_rank>  (10) 
10

$$$$
