
     RDKit          3D

 48 50  0  0  0  0  0  0  0  0999 V2000
  -38.1740  165.0550   -7.2270 C   0  0  0  0  0  0  0  0  0  0  0  0
  -38.2700  163.9580   -6.3030 N   0  0  0  0  0  0  0  0  0  0  0  0
  -38.3150  164.1430   -4.9370 C   0  0  0  0  0  0  0  0  0  0  0  0
  -38.1740  165.2270   -4.3840 O   0  0  0  0  0  0  0  0  0  0  0  0
  -38.5650  162.8890   -4.1550 C   0  0  0  0  0  0  0  0  0  0  0  0
  -39.3290  162.9400   -3.0000 C   0  0  0  0  0  0  0  0  0  0  0  0
  -39.5180  161.7530   -2.3050 C   0  0  0  0  0  0  0  0  0  0  0  0
  -40.3030  161.8080   -1.1750 O   0  0  0  0  0  0  0  0  0  0  0  0
  -40.0600  160.8650   -0.2040 C   0  0  0  0  0  0  0  0  0  0  0  0
  -38.8330  160.7760    0.4540 C   0  0  0  0  0  0  0  0  0  0  0  0
  -38.6540  159.8200    1.4570 C   0  0  0  0  0  0  0  0  0  0  0  0
  -39.6970  158.9540    1.8160 C   0  0  0  0  0  0  0  0  0  0  0  0
  -39.4400  158.0230    2.8440 N   0  0  0  0  0  0  0  0  0  0  0  0
  -38.2590  157.3310    3.0740 C   0  0  0  0  0  0  0  0  0  0  0  0
  -37.2100  157.5130    2.4740 O   0  0  0  0  0  0  0  0  0  0  0  0
  -38.4440  156.3990    4.0870 N   0  0  0  0  0  0  0  0  0  0  0  0
  -37.4640  155.5840    4.6880 C   0  0  0  0  0  0  0  0  0  0  0  0
  -37.5150  154.1910    4.7090 C   0  0  0  0  0  0  0  0  0  0  0  0
  -36.4930  153.4550    5.3180 C   0  0  0  0  0  0  0  0  0  0  0  0
  -35.4060  154.1010    5.9070 C   0  0  0  0  0  0  0  0  0  0  0  0
  -34.1890  153.1190    6.6340 Cl  0  0  0  0  0  0  0  0  0  0  0  0
  -35.3250  155.4960    5.8920 C   0  0  0  0  0  0  0  0  0  0  0  0
  -34.1650  156.2240    6.5140 C   0  0  0  0  0  0  0  0  0  0  0  0
  -33.0230  156.1370    5.7790 F   0  0  0  0  0  0  0  0  0  0  0  0
  -33.8590  155.7800    7.7630 F   0  0  0  0  0  0  0  0  0  0  0  0
  -34.3970  157.5630    6.6560 F   0  0  0  0  0  0  0  0  0  0  0  0
  -36.3640  156.2250    5.2750 C   0  0  0  0  0  0  0  0  0  0  0  0
  -40.9310  159.0780    1.1700 C   0  0  0  0  0  0  0  0  0  0  0  0
  -41.1140  160.0360    0.1680 C   0  0  0  0  0  0  0  0  0  0  0  0
  -38.9840  160.5620   -2.7930 C   0  0  0  0  0  0  0  0  0  0  0  0
  -38.2400  160.6120   -3.9590 C   0  0  0  0  0  0  0  0  0  0  0  0
  -38.0080  161.7450   -4.6530 N   0  0  0  0  0  0  0  0  0  0  0  0
  -38.0914  165.9989   -6.6682 H   0  0  0  0  0  0  0  0  0  0  0  0
  -37.2838  164.9245   -7.8599 H   0  0  0  0  0  0  0  0  0  0  0  0
  -39.0733  165.0811   -7.8599 H   0  0  0  0  0  0  0  0  0  0  0  0
  -38.5050  163.0250   -6.6340 H   0  0  0  0  0  0  0  0  0  0  0  0
  -39.7688  163.8846   -2.6474 H   0  0  0  0  0  0  0  0  0  0  0  0
  -38.0107  161.4551    0.1845 H   0  0  0  0  0  0  0  0  0  0  0  0
  -37.6842  159.7458    1.9708 H   0  0  0  0  0  0  0  0  0  0  0  0
  -40.1250  157.9810    3.5820 H   0  0  0  0  0  0  0  0  0  0  0  0
  -39.4040  156.1730    4.2990 H   0  0  0  0  0  0  0  0  0  0  0  0
  -38.3635  153.6677    4.2441 H   0  0  0  0  0  0  0  0  0  0  0  0
  -36.5471  152.3564    5.3325 H   0  0  0  0  0  0  0  0  0  0  0  0
  -36.3094  157.3235    5.2541 H   0  0  0  0  0  0  0  0  0  0  0  0
  -41.7638  158.4171    1.4521 H   0  0  0  0  0  0  0  0  0  0  0  0
  -42.0917  160.1344   -0.3265 H   0  0  0  0  0  0  0  0  0  0  0  0
  -39.1489  159.6101   -2.2670 H   0  0  0  0  0  0  0  0  0  0  0  0
  -37.8132  159.6733   -4.3419 H   0  0  0  0  0  0  0  0  0  0  0  0
  1  2  1  0
  2  3  1  0
  3  4  2  0
  3  5  1  0
  5  6  2  0
  6  7  1  0
  7  8  1  0
  8  9  1  0
  9 10  1  0
 10 11  2  0
 11 12  1  0
 12 13  1  0
 13 14  1  0
 14 15  2  0
 14 16  1  0
 16 17  1  0
 17 18  1  0
 18 19  2  0
 19 20  1  0
 20 21  1  0
 20 22  2  0
 22 23  1  0
 23 24  1  0
 23 25  1  0
 23 26  1  0
 22 27  1  0
 12 28  2  0
 28 29  1  0
  7 30  2  0
 30 31  1  0
 31 32  2  0
 32  5  1  0
 29  9  2  0
 27 17  2  0
  1 33  1  0
  1 34  1  0
  1 35  1  0
  2 36  1  0
  6 37  1  0
 10 38  1  0
 11 39  1  0
 13 40  1  0
 16 41  1  0
 18 42  1  0
 19 43  1  0
 27 44  1  0
 28 45  1  0
 29 46  1  0
 30 47  1  0
 31 48  1  0
M  END
>  <meeko>  (1) 
{"is_sidechain": false}

>  <vina_affinity_kcal_mol>  (1) 
-11.073

>  <pose_rank>  (1) 
1

$$$$

     RDKit          3D

 48 50  0  0  0  0  0  0  0  0999 V2000
  -38.1770  165.2140   -7.1080 C   0  0  0  0  0  0  0  0  0  0  0  0
  -38.2820  164.0720   -6.2430 N   0  0  0  0  0  0  0  0  0  0  0  0
  -38.3230  164.1860   -4.8690 C   0  0  0  0  0  0  0  0  0  0  0  0
  -38.1720  165.2390   -4.2610 O   0  0  0  0  0  0  0  0  0  0  0  0
  -38.5840  162.8960   -4.1530 C   0  0  0  0  0  0  0  0  0  0  0  0
  -39.3940  162.8840   -3.0290 C   0  0  0  0  0  0  0  0  0  0  0  0
  -39.5910  161.6650   -2.3940 C   0  0  0  0  0  0  0  0  0  0  0  0
  -40.4220  161.6590   -1.2960 O   0  0  0  0  0  0  0  0  0  0  0  0
  -40.1320  160.7530   -0.3020 C   0  0  0  0  0  0  0  0  0  0  0  0
  -38.8570  160.6450    0.2550 C   0  0  0  0  0  0  0  0  0  0  0  0
  -38.6290  159.7300    1.2860 C   0  0  0  0  0  0  0  0  0  0  0  0
  -39.6680  158.9240    1.7720 C   0  0  0  0  0  0  0  0  0  0  0  0
  -39.3580  158.0320    2.8190 N   0  0  0  0  0  0  0  0  0  0  0  0
  -38.1530  157.3780    3.0370 C   0  0  0  0  0  0  0  0  0  0  0  0
  -37.1250  157.5700    2.4040 O   0  0  0  0  0  0  0  0  0  0  0  0
  -38.2860  156.4730    4.0820 N   0  0  0  0  0  0  0  0  0  0  0  0
  -37.2680  155.7030    4.6800 C   0  0  0  0  0  0  0  0  0  0  0  0
  -36.0210  156.2070    5.0440 C   0  0  0  0  0  0  0  0  0  0  0  0
  -35.0690  155.3750    5.6440 C   0  0  0  0  0  0  0  0  0  0  0  0
  -35.3550  154.0320    5.8930 C   0  0  0  0  0  0  0  0  0  0  0  0
  -34.1270  153.0770    6.6360 Cl  0  0  0  0  0  0  0  0  0  0  0  0
  -36.6010  153.5030    5.5460 C   0  0  0  0  0  0  0  0  0  0  0  0
  -36.9430  152.0610    5.8040 C   0  0  0  0  0  0  0  0  0  0  0  0
  -36.8720  151.7220    7.1200 F   0  0  0  0  0  0  0  0  0  0  0  0
  -36.1420  151.1910    5.1330 F   0  0  0  0  0  0  0  0  0  0  0  0
  -38.2160  151.7440    5.4210 F   0  0  0  0  0  0  0  0  0  0  0  0
  -37.5510  154.3550    4.9410 C   0  0  0  0  0  0  0  0  0  0  0  0
  -40.9460  159.0670    1.2250 C   0  0  0  0  0  0  0  0  0  0  0  0
  -41.1790  159.9840    0.1960 C   0  0  0  0  0  0  0  0  0  0  0  0
  -39.0180  160.5050   -2.9100 C   0  0  0  0  0  0  0  0  0  0  0  0
  -38.2290  160.6170   -4.0410 C   0  0  0  0  0  0  0  0  0  0  0  0
  -37.9880  161.7830   -4.6770 N   0  0  0  0  0  0  0  0  0  0  0  0
  -38.0930  166.1274   -6.5008 H   0  0  0  0  0  0  0  0  0  0  0  0
  -37.2844  165.1123   -7.7428 H   0  0  0  0  0  0  0  0  0  0  0  0
  -39.0732  165.2768   -7.7428 H   0  0  0  0  0  0  0  0  0  0  0  0
  -38.5260  163.1600   -6.6210 H   0  0  0  0  0  0  0  0  0  0  0  0
  -39.8633  163.8054   -2.6538 H   0  0  0  0  0  0  0  0  0  0  0  0
  -38.0362  161.2766   -0.1155 H   0  0  0  0  0  0  0  0  0  0  0  0
  -37.6227  159.6410    1.7213 H   0  0  0  0  0  0  0  0  0  0  0  0
  -40.0220  157.9940    3.5770 H   0  0  0  0  0  0  0  0  0  0  0  0
  -39.2330  156.2280    4.3270 H   0  0  0  0  0  0  0  0  0  0  0  0
  -35.7835  157.2649    4.8587 H   0  0  0  0  0  0  0  0  0  0  0  0
  -34.0862  155.7834    5.9219 H   0  0  0  0  0  0  0  0  0  0  0  0
  -38.5370  153.9511    4.6679 H   0  0  0  0  0  0  0  0  0  0  0  0
  -41.7750  158.4532    1.6071 H   0  0  0  0  0  0  0  0  0  0  0  0
  -42.1908  160.0976   -0.2203 H   0  0  0  0  0  0  0  0  0  0  0  0
  -39.1878  159.5287   -2.4324 H   0  0  0  0  0  0  0  0  0  0  0  0
  -37.7713  159.7023   -4.4456 H   0  0  0  0  0  0  0  0  0  0  0  0
  1  2  1  0
  2  3  1  0
  3  4  2  0
  3  5  1  0
  5  6  2  0
  6  7  1  0
  7  8  1  0
  8  9  1  0
  9 10  1  0
 10 11  2  0
 11 12  1  0
 12 13  1  0
 13 14  1  0
 14 15  2  0
 14 16  1  0
 16 17  1  0
 17 18  1  0
 18 19  2  0
 19 20  1  0
 20 21  1  0
 20 22  2  0
 22 23  1  0
 23 24  1  0
 23 25  1  0
 23 26  1  0
 22 27  1  0
 12 28  2  0
 28 29  1  0
  7 30  2  0
 30 31  1  0
 31 32  2  0
 32  5  1  0
 29  9  2  0
 27 17  2  0
  1 33  1  0
  1 34  1  0
  1 35  1  0
  2 36  1  0
  6 37  1  0
 10 38  1  0
 11 39  1  0
 13 40  1  0
 16 41  1  0
 18 42  1  0
 19 43  1  0
 27 44  1  0
 28 45  1  0
 29 46  1  0
 30 47  1  0
 31 48  1  0
M  END
>  <meeko>  (2) 
{"is_sidechain": false}

>  <vina_affinity_kcal_mol>  (2) 
-10.532

>  <pose_rank>  (2) 
2

$$$$

     RDKit          3D

 48 50  0  0  0  0  0  0  0  0999 V2000
  -37.7650  163.7090   -8.8420 C   0  0  0  0  0  0  0  0  0  0  0  0
  -37.9270  163.3940   -7.4490 N   0  0  0  0  0  0  0  0  0  0  0  0
  -38.1740  164.3610   -6.4970 C   0  0  0  0  0  0  0  0  0  0  0  0
  -38.1740  165.5650   -6.7220 O   0  0  0  0  0  0  0  0  0  0  0  0
  -38.4600  163.8180   -5.1300 C   0  0  0  0  0  0  0  0  0  0  0  0
  -38.8260  162.4900   -4.9800 C   0  0  0  0  0  0  0  0  0  0  0  0
  -39.0950  162.0410   -3.6940 C   0  0  0  0  0  0  0  0  0  0  0  0
  -39.4290  160.7130   -3.5520 O   0  0  0  0  0  0  0  0  0  0  0  0
  -39.3890  160.1950   -2.2790 C   0  0  0  0  0  0  0  0  0  0  0  0
  -40.0860  160.7750   -1.2190 C   0  0  0  0  0  0  0  0  0  0  0  0
  -40.0360  160.1850    0.0470 C   0  0  0  0  0  0  0  0  0  0  0  0
  -39.2980  159.0120    0.2630 C   0  0  0  0  0  0  0  0  0  0  0  0
  -39.3050  158.4750    1.5670 N   0  0  0  0  0  0  0  0  0  0  0  0
  -38.2220  157.9710    2.2730 C   0  0  0  0  0  0  0  0  0  0  0  0
  -37.0570  158.0220    1.9050 O   0  0  0  0  0  0  0  0  0  0  0  0
  -38.6550  157.4000    3.4630 N   0  0  0  0  0  0  0  0  0  0  0  0
  -37.8560  156.8840    4.5040 C   0  0  0  0  0  0  0  0  0  0  0  0
  -37.1200  157.6730    5.3840 C   0  0  0  0  0  0  0  0  0  0  0  0
  -36.3600  157.0810    6.3990 C   0  0  0  0  0  0  0  0  0  0  0  0
  -36.3340  155.6940    6.5490 C   0  0  0  0  0  0  0  0  0  0  0  0
  -35.3740  155.0450    7.8260 Cl  0  0  0  0  0  0  0  0  0  0  0  0
  -37.0710  154.8790    5.6850 C   0  0  0  0  0  0  0  0  0  0  0  0
  -37.0670  153.3810    5.8210 C   0  0  0  0  0  0  0  0  0  0  0  0
  -37.5510  152.9520    7.0190 F   0  0  0  0  0  0  0  0  0  0  0  0
  -35.8310  152.8320    5.6800 F   0  0  0  0  0  0  0  0  0  0  0  0
  -37.8440  152.7640    4.8810 F   0  0  0  0  0  0  0  0  0  0  0  0
  -37.8310  155.4920    4.6650 C   0  0  0  0  0  0  0  0  0  0  0  0
  -38.6320  158.4260   -0.8170 C   0  0  0  0  0  0  0  0  0  0  0  0
  -38.6830  159.0120   -2.0850 C   0  0  0  0  0  0  0  0  0  0  0  0
  -38.9550  162.9020   -2.6070 C   0  0  0  0  0  0  0  0  0  0  0  0
  -38.5780  164.2090   -2.8580 C   0  0  0  0  0  0  0  0  0  0  0  0
  -38.3320  164.6970   -4.0920 N   0  0  0  0  0  0  0  0  0  0  0  0
  -37.2640  164.6832   -8.9418 H   0  0  0  0  0  0  0  0  0  0  0  0
  -37.1548  162.9317   -9.3252 H   0  0  0  0  0  0  0  0  0  0  0  0
  -38.7522  163.7532   -9.3252 H   0  0  0  0  0  0  0  0  0  0  0  0
  -38.0600  162.4320   -7.1500 H   0  0  0  0  0  0  0  0  0  0  0  0
  -38.9006  161.8170   -5.8469 H   0  0  0  0  0  0  0  0  0  0  0  0
  -40.6720  161.6921   -1.3787 H   0  0  0  0  0  0  0  0  0  0  0  0
  -40.5817  160.6459    0.8836 H   0  0  0  0  0  0  0  0  0  0  0  0
  -40.1470  158.6250    2.1010 H   0  0  0  0  0  0  0  0  0  0  0  0
  -39.6400  157.1900    3.5090 H   0  0  0  0  0  0  0  0  0  0  0  0
  -37.1360  158.7680    5.2808 H   0  0  0  0  0  0  0  0  0  0  0  0
  -35.7781  157.7146    7.0845 H   0  0  0  0  0  0  0  0  0  0  0  0
  -38.4176  154.8618    3.9803 H   0  0  0  0  0  0  0  0  0  0  0  0
  -38.0632  157.4963   -0.6680 H   0  0  0  0  0  0  0  0  0  0  0  0
  -38.1642  158.5371   -2.9307 H   0  0  0  0  0  0  0  0  0  0  0  0
  -39.1388  162.5526   -1.5803 H   0  0  0  0  0  0  0  0  0  0  0  0
  -38.4725  164.8908   -2.0013 H   0  0  0  0  0  0  0  0  0  0  0  0
  1  2  1  0
  2  3  1  0
  3  4  2  0
  3  5  1  0
  5  6  2  0
  6  7  1  0
  7  8  1  0
  8  9  1  0
  9 10  1  0
 10 11  2  0
 11 12  1  0
 12 13  1  0
 13 14  1  0
 14 15  2  0
 14 16  1  0
 16 17  1  0
 17 18  1  0
 18 19  2  0
 19 20  1  0
 20 21  1  0
 20 22  2  0
 22 23  1  0
 23 24  1  0
 23 25  1  0
 23 26  1  0
 22 27  1  0
 12 28  2  0
 28 29  1  0
  7 30  2  0
 30 31  1  0
 31 32  2  0
 32  5  1  0
 29  9  2  0
 27 17  2  0
  1 33  1  0
  1 34  1  0
  1 35  1  0
  2 36  1  0
  6 37  1  0
 10 38  1  0
 11 39  1  0
 13 40  1  0
 16 41  1  0
 18 42  1  0
 19 43  1  0
 27 44  1  0
 28 45  1  0
 29 46  1  0
 30 47  1  0
 31 48  1  0
M  END
>  <meeko>  (3) 
{"is_sidechain": false}

>  <vina_affinity_kcal_mol>  (3) 
-10.498

>  <pose_rank>  (3) 
3

$$$$

     RDKit          3D

 48 50  0  0  0  0  0  0  0  0999 V2000
  -33.7090  152.6700    6.0280 C   0  0  0  0  0  0  0  0  0  0  0  0
  -34.2470  153.9300    5.5920 N   0  0  0  0  0  0  0  0  0  0  0  0
  -35.6000  154.1340    5.4140 C   0  0  0  0  0  0  0  0  0  0  0  0
  -36.4470  153.2550    5.5060 O   0  0  0  0  0  0  0  0  0  0  0  0
  -35.9700  155.5530    5.1030 C   0  0  0  0  0  0  0  0  0  0  0  0
  -37.2500  155.8480    4.6620 C   0  0  0  0  0  0  0  0  0  0  0  0
  -37.5370  157.1760    4.3720 C   0  0  0  0  0  0  0  0  0  0  0  0
  -38.8200  157.4640    3.9640 O   0  0  0  0  0  0  0  0  0  0  0  0
  -38.9650  158.0120    2.7110 C   0  0  0  0  0  0  0  0  0  0  0  0
  -38.0240  157.8130    1.7000 C   0  0  0  0  0  0  0  0  0  0  0  0
  -38.2410  158.3670    0.4350 C   0  0  0  0  0  0  0  0  0  0  0  0
  -39.3960  159.1150    0.1690 C   0  0  0  0  0  0  0  0  0  0  0  0
  -39.5440  159.6340   -1.1340 N   0  0  0  0  0  0  0  0  0  0  0  0
  -39.0430  160.8320   -1.6240 C   0  0  0  0  0  0  0  0  0  0  0  0
  -38.2890  161.5780   -1.0170 O   0  0  0  0  0  0  0  0  0  0  0  0
  -39.5240  161.0600   -2.9060 N   0  0  0  0  0  0  0  0  0  0  0  0
  -39.1620  162.1030   -3.7830 C   0  0  0  0  0  0  0  0  0  0  0  0
  -39.2030  163.4540   -3.4440 C   0  0  0  0  0  0  0  0  0  0  0  0
  -38.8150  164.4270   -4.3710 C   0  0  0  0  0  0  0  0  0  0  0  0
  -38.3770  164.0620   -5.6440 C   0  0  0  0  0  0  0  0  0  0  0  0
  -37.9160  165.3240   -6.7250 Cl  0  0  0  0  0  0  0  0  0  0  0  0
  -38.3180  162.7130   -6.0070 C   0  0  0  0  0  0  0  0  0  0  0  0
  -37.8470  162.2840   -7.3700 C   0  0  0  0  0  0  0  0  0  0  0  0
  -38.5380  162.8740   -8.3840 F   0  0  0  0  0  0  0  0  0  0  0  0
  -37.9310  160.9420   -7.5690 F   0  0  0  0  0  0  0  0  0  0  0  0
  -36.5370  162.6000   -7.5990 F   0  0  0  0  0  0  0  0  0  0  0  0
  -38.7130  161.7430   -5.0610 C   0  0  0  0  0  0  0  0  0  0  0  0
  -40.3440  159.2790    1.1830 C   0  0  0  0  0  0  0  0  0  0  0  0
  -40.1320  158.7230    2.4490 C   0  0  0  0  0  0  0  0  0  0  0  0
  -36.5710  158.1610    4.5670 C   0  0  0  0  0  0  0  0  0  0  0  0
  -35.3230  157.7670    5.0160 C   0  0  0  0  0  0  0  0  0  0  0  0
  -34.9900  156.4870    5.2850 N   0  0  0  0  0  0  0  0  0  0  0  0
  -33.6953  152.6379    7.1274 H   0  0  0  0  0  0  0  0  0  0  0  0
  -34.3360  151.8514    5.6451 H   0  0  0  0  0  0  0  0  0  0  0  0
  -32.6840  152.5567    5.6451 H   0  0  0  0  0  0  0  0  0  0  0  0
  -33.6670  154.7650    5.5910 H   0  0  0  0  0  0  0  0  0  0  0  0
  -38.0097  155.0610    4.5460 H   0  0  0  0  0  0  0  0  0  0  0  0
  -37.1165  157.2235    1.8973 H   0  0  0  0  0  0  0  0  0  0  0  0
  -37.4969  158.2141   -0.3606 H   0  0  0  0  0  0  0  0  0  0  0  0
  -39.9070  158.9940   -1.8240 H   0  0  0  0  0  0  0  0  0  0  0  0
  -40.3310  160.5140   -3.1700 H   0  0  0  0  0  0  0  0  0  0  0  0
  -39.5422  163.7568   -2.4424 H   0  0  0  0  0  0  0  0  0  0  0  0
  -38.8557  165.4906   -4.0933 H   0  0  0  0  0  0  0  0  0  0  0  0
  -38.6674  160.6782   -5.3334 H   0  0  0  0  0  0  0  0  0  0  0  0
  -41.2633  159.8493    0.9840 H   0  0  0  0  0  0  0  0  0  0  0  0
  -40.8883  158.8480    3.2379 H   0  0  0  0  0  0  0  0  0  0  0  0
  -36.7939  159.2200    4.3699 H   0  0  0  0  0  0  0  0  0  0  0  0
  -34.5570  158.5428    5.1624 H   0  0  0  0  0  0  0  0  0  0  0  0
  1  2  1  0
  2  3  1  0
  3  4  2  0
  3  5  1  0
  5  6  2  0
  6  7  1  0
  7  8  1  0
  8  9  1  0
  9 10  1  0
 10 11  2  0
 11 12  1  0
 12 13  1  0
 13 14  1  0
 14 15  2  0
 14 16  1  0
 16 17  1  0
 17 18  1  0
 18 19  2  0
 19 20  1  0
 20 21  1  0
 20 22  2  0
 22 23  1  0
 23 24  1  0
 23 25  1  0
 23 26  1  0
 22 27  1  0
 12 28  2  0
 28 29  1  0
  7 30  2  0
 30 31  1  0
 31 32  2  0
 32  5  1  0
 29  9  2  0
 27 17  2  0
  1 33  1  0
  1 34  1  0
  1 35  1  0
  2 36  1  0
  6 37  1  0
 10 38  1  0
 11 39  1  0
 13 40  1  0
 16 41  1  0
 18 42  1  0
 19 43  1  0
 27 44  1  0
 28 45  1  0
 29 46  1  0
 30 47  1  0
 31 48  1  0
M  END
>  <meeko>  (4) 
{"is_sidechain": false}

>  <vina_affinity_kcal_mol>  (4) 
-10.391

>  <pose_rank>  (4) 
4

$$$$

     RDKit          3D

 48 50  0  0  0  0  0  0  0  0999 V2000
  -35.9420  168.1920  -11.4500 C   0  0  0  0  0  0  0  0  0  0  0  0
  -36.3860  166.9170  -10.9590 N   0  0  0  0  0  0  0  0  0  0  0  0
  -37.5770  166.3460  -11.3580 C   0  0  0  0  0  0  0  0  0  0  0  0
  -38.4030  166.9020  -12.0700 O   0  0  0  0  0  0  0  0  0  0  0  0
  -37.7890  164.9510  -10.8510 C   0  0  0  0  0  0  0  0  0  0  0  0
  -36.9990  164.4660   -9.8210 C   0  0  0  0  0  0  0  0  0  0  0  0
  -37.2260  163.1620   -9.4000 C   0  0  0  0  0  0  0  0  0  0  0  0
  -36.4560  162.6990   -8.3560 O   0  0  0  0  0  0  0  0  0  0  0  0
  -37.0540  162.6520   -7.1180 C   0  0  0  0  0  0  0  0  0  0  0  0
  -37.3140  163.8030   -6.3740 C   0  0  0  0  0  0  0  0  0  0  0  0
  -37.9550  163.6970   -5.1370 C   0  0  0  0  0  0  0  0  0  0  0  0
  -38.3450  162.4460   -4.6370 C   0  0  0  0  0  0  0  0  0  0  0  0
  -38.9940  162.4240   -3.3850 N   0  0  0  0  0  0  0  0  0  0  0  0
  -39.3530  161.3070   -2.6450 C   0  0  0  0  0  0  0  0  0  0  0  0
  -39.0540  160.1540   -2.9210 O   0  0  0  0  0  0  0  0  0  0  0  0
  -40.1030  161.6900   -1.5400 N   0  0  0  0  0  0  0  0  0  0  0  0
  -40.5580  160.8680   -0.4890 C   0  0  0  0  0  0  0  0  0  0  0  0
  -41.8990  160.7170   -0.1430 C   0  0  0  0  0  0  0  0  0  0  0  0
  -42.2680  159.8710    0.9090 C   0  0  0  0  0  0  0  0  0  0  0  0
  -41.3010  159.1630    1.6230 C   0  0  0  0  0  0  0  0  0  0  0  0
  -41.8390  158.1410    2.9040 Cl  0  0  0  0  0  0  0  0  0  0  0  0
  -39.9490  159.2900    1.2910 C   0  0  0  0  0  0  0  0  0  0  0  0
  -38.8810  158.5380    2.0380 C   0  0  0  0  0  0  0  0  0  0  0  0
  -39.1020  157.1950    2.0790 F   0  0  0  0  0  0  0  0  0  0  0  0
  -38.7370  158.9480    3.3270 F   0  0  0  0  0  0  0  0  0  0  0  0
  -37.6440  158.6790    1.4760 F   0  0  0  0  0  0  0  0  0  0  0  0
  -39.5930  160.1470    0.2280 C   0  0  0  0  0  0  0  0  0  0  0  0
  -38.1060  161.3060   -5.4090 C   0  0  0  0  0  0  0  0  0  0  0  0
  -37.4680  161.4090   -6.6490 C   0  0  0  0  0  0  0  0  0  0  0  0
  -38.2430  162.4060   -9.9780 C   0  0  0  0  0  0  0  0  0  0  0  0
  -38.9830  162.9800  -10.9960 C   0  0  0  0  0  0  0  0  0  0  0  0
  -38.7810  164.2330  -11.4560 N   0  0  0  0  0  0  0  0  0  0  0  0
  -35.7121  168.8522  -10.6007 H   0  0  0  0  0  0  0  0  0  0  0  0
  -35.0388  168.0547  -12.0626 H   0  0  0  0  0  0  0  0  0  0  0  0
  -36.7351  168.6454  -12.0626 H   0  0  0  0  0  0  0  0  0  0  0  0
  -35.7470  166.3070  -10.4560 H   0  0  0  0  0  0  0  0  0  0  0  0
  -36.2221  165.0897   -9.3548 H   0  0  0  0  0  0  0  0  0  0  0  0
  -37.0158  164.7892   -6.7593 H   0  0  0  0  0  0  0  0  0  0  0  0
  -38.1560  164.6046   -4.5489 H   0  0  0  0  0  0  0  0  0  0  0  0
  -39.0530  163.3090   -2.9040 H   0  0  0  0  0  0  0  0  0  0  0  0
  -40.4950  162.6190   -1.5830 H   0  0  0  0  0  0  0  0  0  0  0  0
  -42.6725  161.2660   -0.7000 H   0  0  0  0  0  0  0  0  0  0  0  0
  -43.3299  159.7634    1.1752 H   0  0  0  0  0  0  0  0  0  0  0  0
  -38.5325  160.2519   -0.0447 H   0  0  0  0  0  0  0  0  0  0  0  0
  -38.4223  160.3198   -5.0383 H   0  0  0  0  0  0  0  0  0  0  0  0
  -37.2933  160.5071   -7.2540 H   0  0  0  0  0  0  0  0  0  0  0  0
  -38.4517  161.3820   -9.6348 H   0  0  0  0  0  0  0  0  0  0  0  0
  -39.7820  162.3810  -11.4573 H   0  0  0  0  0  0  0  0  0  0  0  0
  1  2  1  0
  2  3  1  0
  3  4  2  0
  3  5  1  0
  5  6  2  0
  6  7  1  0
  7  8  1  0
  8  9  1  0
  9 10  1  0
 10 11  2  0
 11 12  1  0
 12 13  1  0
 13 14  1  0
 14 15  2  0
 14 16  1  0
 16 17  1  0
 17 18  1  0
 18 19  2  0
 19 20  1  0
 20 21  1  0
 20 22  2  0
 22 23  1  0
 23 24  1  0
 23 25  1  0
 23 26  1  0
 22 27  1  0
 12 28  2  0
 28 29  1  0
  7 30  2  0
 30 31  1  0
 31 32  2  0
 32  5  1  0
 29  9  2  0
 27 17  2  0
  1 33  1  0
  1 34  1  0
  1 35  1  0
  2 36  1  0
  6 37  1  0
 10 38  1  0
 11 39  1  0
 13 40  1  0
 16 41  1  0
 18 42  1  0
 19 43  1  0
 27 44  1  0
 28 45  1  0
 29 46  1  0
 30 47  1  0
 31 48  1  0
M  END
>  <meeko>  (5) 
{"is_sidechain": false}

>  <vina_affinity_kcal_mol>  (5) 
-10.333

>  <pose_rank>  (5) 
5

$$$$

     RDKit          3D

 48 50  0  0  0  0  0  0  0  0999 V2000
  -37.7520  163.6700   -8.5530 C   0  0  0  0  0  0  0  0  0  0  0  0
  -37.9290  163.3480   -7.1630 N   0  0  0  0  0  0  0  0  0  0  0  0
  -38.1350  164.3150   -6.2010 C   0  0  0  0  0  0  0  0  0  0  0  0
  -38.0830  165.5210   -6.4140 O   0  0  0  0  0  0  0  0  0  0  0  0
  -38.4470  163.7710   -4.8400 C   0  0  0  0  0  0  0  0  0  0  0  0
  -38.8410  162.4500   -4.7010 C   0  0  0  0  0  0  0  0  0  0  0  0
  -39.1330  162.0010   -3.4200 C   0  0  0  0  0  0  0  0  0  0  0  0
  -39.4940  160.6780   -3.2880 O   0  0  0  0  0  0  0  0  0  0  0  0
  -39.4260  160.1390   -2.0250 C   0  0  0  0  0  0  0  0  0  0  0  0
  -40.1270  160.6820   -0.9470 C   0  0  0  0  0  0  0  0  0  0  0  0
  -40.0480  160.0710    0.3070 C   0  0  0  0  0  0  0  0  0  0  0  0
  -39.2770  158.9140    0.4940 C   0  0  0  0  0  0  0  0  0  0  0  0
  -39.2560  158.3540    1.7880 N   0  0  0  0  0  0  0  0  0  0  0  0
  -38.1700  157.7860    2.4390 C   0  0  0  0  0  0  0  0  0  0  0  0
  -37.0200  157.7890    2.0230 O   0  0  0  0  0  0  0  0  0  0  0  0
  -38.5800  157.2140    3.6360 N   0  0  0  0  0  0  0  0  0  0  0  0
  -37.7650  156.6420    4.6340 C   0  0  0  0  0  0  0  0  0  0  0  0
  -38.1780  155.6180    5.4840 C   0  0  0  0  0  0  0  0  0  0  0  0
  -37.3010  155.0970    6.4420 C   0  0  0  0  0  0  0  0  0  0  0  0
  -36.0000  155.5890    6.5570 C   0  0  0  0  0  0  0  0  0  0  0  0
  -34.9830  154.8910    7.7620 Cl  0  0  0  0  0  0  0  0  0  0  0  0
  -35.5580  156.6090    5.7100 C   0  0  0  0  0  0  0  0  0  0  0  0
  -34.1610  157.1590    5.8040 C   0  0  0  0  0  0  0  0  0  0  0  0
  -33.8850  157.7130    7.0160 F   0  0  0  0  0  0  0  0  0  0  0  0
  -33.8950  158.1120    4.8710 F   0  0  0  0  0  0  0  0  0  0  0  0
  -33.2030  156.2020    5.6230 F   0  0  0  0  0  0  0  0  0  0  0  0
  -36.4540  157.1250    4.7490 C   0  0  0  0  0  0  0  0  0  0  0  0
  -38.6070  158.3650   -0.6030 C   0  0  0  0  0  0  0  0  0  0  0  0
  -38.6870  158.9720   -1.8600 C   0  0  0  0  0  0  0  0  0  0  0  0
  -38.9870  162.8530   -2.3270 C   0  0  0  0  0  0  0  0  0  0  0  0
  -38.5830  164.1550   -2.5680 C   0  0  0  0  0  0  0  0  0  0  0  0
  -38.3140  164.6430   -3.7960 N   0  0  0  0  0  0  0  0  0  0  0  0
  -37.2239  164.6308   -8.6424 H   0  0  0  0  0  0  0  0  0  0  0  0
  -37.1613  162.8801   -9.0400 H   0  0  0  0  0  0  0  0  0  0  0  0
  -38.7354  163.7455   -9.0400 H   0  0  0  0  0  0  0  0  0  0  0  0
  -38.1050  162.3890   -6.8740 H   0  0  0  0  0  0  0  0  0  0  0  0
  -38.9195  161.7827   -5.5719 H   0  0  0  0  0  0  0  0  0  0  0  0
  -40.7384  161.5861   -1.0840 H   0  0  0  0  0  0  0  0  0  0  0  0
  -40.5966  160.5021    1.1574 H   0  0  0  0  0  0  0  0  0  0  0  0
  -40.0670  158.5340    2.3590 H   0  0  0  0  0  0  0  0  0  0  0  0
  -39.5720  157.0500    3.7210 H   0  0  0  0  0  0  0  0  0  0  0  0
  -39.1990  155.2170    5.4015 H   0  0  0  0  0  0  0  0  0  0  0  0
  -37.6402  154.2921    7.1107 H   0  0  0  0  0  0  0  0  0  0  0  0
  -36.1155  157.9251    4.0743 H   0  0  0  0  0  0  0  0  0  0  0  0
  -38.0122  157.4484   -0.4764 H   0  0  0  0  0  0  0  0  0  0  0  0
  -38.1650  158.5262   -2.7195 H   0  0  0  0  0  0  0  0  0  0  0  0
  -39.1867  162.5017   -1.3039 H   0  0  0  0  0  0  0  0  0  0  0  0
  -38.4751  164.8312   -1.7072 H   0  0  0  0  0  0  0  0  0  0  0  0
  1  2  1  0
  2  3  1  0
  3  4  2  0
  3  5  1  0
  5  6  2  0
  6  7  1  0
  7  8  1  0
  8  9  1  0
  9 10  1  0
 10 11  2  0
 11 12  1  0
 12 13  1  0
 13 14  1  0
 14 15  2  0
 14 16  1  0
 16 17  1  0
 17 18  1  0
 18 19  2  0
 19 20  1  0
 20 21  1  0
 20 22  2  0
 22 23  1  0
 23 24  1  0
 23 25  1  0
 23 26  1  0
 22 27  1  0
 12 28  2  0
 28 29  1  0
  7 30  2  0
 30 31  1  0
 31 32  2  0
 32  5  1  0
 29  9  2  0
 27 17  2  0
  1 33  1  0
  1 34  1  0
  1 35  1  0
  2 36  1  0
  6 37  1  0
 10 38  1  0
 11 39  1  0
 13 40  1  0
 16 41  1  0
 18 42  1  0
 19 43  1  0
 27 44  1  0
 28 45  1  0
 29 46  1  0
 30 47  1  0
 31 48  1  0
M  END
>  <meeko>  (6) 
{"is_sidechain": false}

>  <vina_affinity_kcal_mol>  (6) 
-10.16

>  <pose_rank>  (6) 
6

$$$$

     RDKit          3D

 48 50  0  0  0  0  0  0  0  0999 V2000
  -34.4770  152.4640    5.4060 C   0  0  0  0  0  0  0  0  0  0  0  0
  -35.1980  153.7080    5.4250 N   0  0  0  0  0  0  0  0  0  0  0  0
  -34.5630  154.9300    5.4960 C   0  0  0  0  0  0  0  0  0  0  0  0
  -33.3560  155.0710    5.6520 O   0  0  0  0  0  0  0  0  0  0  0  0
  -35.4790  156.1070    5.3530 C   0  0  0  0  0  0  0  0  0  0  0  0
  -36.6630  155.9760    4.6460 C   0  0  0  0  0  0  0  0  0  0  0  0
  -37.4680  157.1010    4.5300 C   0  0  0  0  0  0  0  0  0  0  0  0
  -38.6570  156.9530    3.8510 O   0  0  0  0  0  0  0  0  0  0  0  0
  -38.8860  157.8150    2.8040 C   0  0  0  0  0  0  0  0  0  0  0  0
  -37.9140  158.0890    1.8420 C   0  0  0  0  0  0  0  0  0  0  0  0
  -38.2160  158.9470    0.7800 C   0  0  0  0  0  0  0  0  0  0  0  0
  -39.4860  159.5290    0.6680 C   0  0  0  0  0  0  0  0  0  0  0  0
  -39.7130  160.3770   -0.4370 N   0  0  0  0  0  0  0  0  0  0  0  0
  -39.0440  160.3690   -1.6520 C   0  0  0  0  0  0  0  0  0  0  0  0
  -38.2170  159.5350   -1.9950 O   0  0  0  0  0  0  0  0  0  0  0  0
  -39.4520  161.4480   -2.4260 N   0  0  0  0  0  0  0  0  0  0  0  0
  -39.0940  161.7270   -3.7610 C   0  0  0  0  0  0  0  0  0  0  0  0
  -39.0200  160.7630   -4.7650 C   0  0  0  0  0  0  0  0  0  0  0  0
  -38.6670  161.1260   -6.0690 C   0  0  0  0  0  0  0  0  0  0  0  0
  -38.3910  162.4570   -6.3860 C   0  0  0  0  0  0  0  0  0  0  0  0
  -37.9650  162.8200   -8.0170 Cl  0  0  0  0  0  0  0  0  0  0  0  0
  -38.4670  163.4450   -5.4000 C   0  0  0  0  0  0  0  0  0  0  0  0
  -38.1790  164.8890   -5.7090 C   0  0  0  0  0  0  0  0  0  0  0  0
  -38.8870  165.3590   -6.7710 F   0  0  0  0  0  0  0  0  0  0  0  0
  -36.8680  165.1300   -5.9770 F   0  0  0  0  0  0  0  0  0  0  0  0
  -38.4930  165.7230   -4.6720 F   0  0  0  0  0  0  0  0  0  0  0  0
  -38.8230  163.0620   -4.0890 C   0  0  0  0  0  0  0  0  0  0  0  0
  -40.4580  159.2190    1.6230 C   0  0  0  0  0  0  0  0  0  0  0  0
  -40.1620  158.3580    2.6840 C   0  0  0  0  0  0  0  0  0  0  0  0
  -37.0970  158.2950    5.1450 C   0  0  0  0  0  0  0  0  0  0  0  0
  -35.8970  158.3260    5.8340 C   0  0  0  0  0  0  0  0  0  0  0  0
  -35.0710  157.2660    5.9520 N   0  0  0  0  0  0  0  0  0  0  0  0
  -34.2863  152.1349    6.4382 H   0  0  0  0  0  0  0  0  0  0  0  0
  -35.0736  151.7023    4.8827 H   0  0  0  0  0  0  0  0  0  0  0  0
  -33.5195  152.6031    4.8827 H   0  0  0  0  0  0  0  0  0  0  0  0
  -36.1870  153.7330    5.1890 H   0  0  0  0  0  0  0  0  0  0  0  0
  -36.9544  155.0166    4.1935 H   0  0  0  0  0  0  0  0  0  0  0  0
  -36.9159  157.6329    1.9183 H   0  0  0  0  0  0  0  0  0  0  0  0
  -37.4481  159.1677    0.0239 H   0  0  0  0  0  0  0  0  0  0  0  0
  -40.5540  160.9320   -0.4010 H   0  0  0  0  0  0  0  0  0  0  0  0
  -39.9210  162.1870   -1.9260 H   0  0  0  0  0  0  0  0  0  0  0  0
  -39.2404  159.7111   -4.5307 H   0  0  0  0  0  0  0  0  0  0  0  0
  -38.6064  160.3555   -6.8517 H   0  0  0  0  0  0  0  0  0  0  0  0
  -38.8894  163.8308   -3.3051 H   0  0  0  0  0  0  0  0  0  0  0  0
  -41.4640  159.6559    1.5393 H   0  0  0  0  0  0  0  0  0  0  0  0
  -40.9373  158.1098    3.4238 H   0  0  0  0  0  0  0  0  0  0  0  0
  -37.7387  159.1864    5.0847 H   0  0  0  0  0  0  0  0  0  0  0  0
  -35.5994  159.2703    6.3134 H   0  0  0  0  0  0  0  0  0  0  0  0
  1  2  1  0
  2  3  1  0
  3  4  2  0
  3  5  1  0
  5  6  2  0
  6  7  1  0
  7  8  1  0
  8  9  1  0
  9 10  1  0
 10 11  2  0
 11 12  1  0
 12 13  1  0
 13 14  1  0
 14 15  2  0
 14 16  1  0
 16 17  1  0
 17 18  1  0
 18 19  2  0
 19 20  1  0
 20 21  1  0
 20 22  2  0
 22 23  1  0
 23 24  1  0
 23 25  1  0
 23 26  1  0
 22 27  1  0
 12 28  2  0
 28 29  1  0
  7 30  2  0
 30 31  1  0
 31 32  2  0
 32  5  1  0
 29  9  2  0
 27 17  2  0
  1 33  1  0
  1 34  1  0
  1 35  1  0
  2 36  1  0
  6 37  1  0
 10 38  1  0
 11 39  1  0
 13 40  1  0
 16 41  1  0
 18 42  1  0
 19 43  1  0
 27 44  1  0
 28 45  1  0
 29 46  1  0
 30 47  1  0
 31 48  1  0
M  END
>  <meeko>  (7) 
{"is_sidechain": false}

>  <vina_affinity_kcal_mol>  (7) 
-10.145

>  <pose_rank>  (7) 
7

$$$$

     RDKit          3D

 48 50  0  0  0  0  0  0  0  0999 V2000
  -33.0790  169.1910  -11.8210 C   0  0  0  0  0  0  0  0  0  0  0  0
  -33.5900  167.9070  -11.4260 N   0  0  0  0  0  0  0  0  0  0  0  0
  -34.9100  167.5500  -11.6040 C   0  0  0  0  0  0  0  0  0  0  0  0
  -35.7810  168.3120  -12.0080 O   0  0  0  0  0  0  0  0  0  0  0  0
  -35.2120  166.1210  -11.2670 C   0  0  0  0  0  0  0  0  0  0  0  0
  -36.4410  165.7870  -10.7220 C   0  0  0  0  0  0  0  0  0  0  0  0
  -36.6630  164.4510  -10.4140 C   0  0  0  0  0  0  0  0  0  0  0  0
  -37.8980  164.1250   -9.9010 O   0  0  0  0  0  0  0  0  0  0  0  0
  -37.9830  163.9690   -8.5370 C   0  0  0  0  0  0  0  0  0  0  0  0
  -38.2700  165.0360   -7.6850 C   0  0  0  0  0  0  0  0  0  0  0  0
  -38.3770  164.8110   -6.3090 C   0  0  0  0  0  0  0  0  0  0  0  0
  -38.2080  163.5250   -5.7770 C   0  0  0  0  0  0  0  0  0  0  0  0
  -38.3400  163.3810   -4.3810 N   0  0  0  0  0  0  0  0  0  0  0  0
  -38.7200  162.2410   -3.6860 C   0  0  0  0  0  0  0  0  0  0  0  0
  -38.8910  161.1380   -4.1860 O   0  0  0  0  0  0  0  0  0  0  0  0
  -38.8770  162.5360   -2.3380 N   0  0  0  0  0  0  0  0  0  0  0  0
  -39.1440  161.6320   -1.2910 C   0  0  0  0  0  0  0  0  0  0  0  0
  -38.1580  160.9580   -0.5730 C   0  0  0  0  0  0  0  0  0  0  0  0
  -38.5080  160.0840    0.4610 C   0  0  0  0  0  0  0  0  0  0  0  0
  -39.8470  159.8780    0.7950 C   0  0  0  0  0  0  0  0  0  0  0  0
  -40.1920  158.7860    2.0840 Cl  0  0  0  0  0  0  0  0  0  0  0  0
  -40.8560  160.5480    0.0980 C   0  0  0  0  0  0  0  0  0  0  0  0
  -42.3090  160.3530    0.4340 C   0  0  0  0  0  0  0  0  0  0  0  0
  -42.5670  159.1440    1.0040 F   0  0  0  0  0  0  0  0  0  0  0  0
  -43.1290  160.4580   -0.6450 F   0  0  0  0  0  0  0  0  0  0  0  0
  -42.7730  161.2760    1.3290 F   0  0  0  0  0  0  0  0  0  0  0  0
  -40.4870  161.4260   -0.9440 C   0  0  0  0  0  0  0  0  0  0  0  0
  -37.9530  162.4620   -6.6490 C   0  0  0  0  0  0  0  0  0  0  0  0
  -37.8480  162.6830   -8.0250 C   0  0  0  0  0  0  0  0  0  0  0  0
  -35.6870  163.4960  -10.6910 C   0  0  0  0  0  0  0  0  0  0  0  0
  -34.4930  163.9280  -11.2410 C   0  0  0  0  0  0  0  0  0  0  0  0
  -34.2220  165.2170  -11.5330 N   0  0  0  0  0  0  0  0  0  0  0  0
  -32.8432  169.7834  -10.9246 H   0  0  0  0  0  0  0  0  0  0  0  0
  -32.1668  169.0540  -12.4203 H   0  0  0  0  0  0  0  0  0  0  0  0
  -33.8358  169.7183  -12.4203 H   0  0  0  0  0  0  0  0  0  0  0  0
  -32.9540  167.1510  -11.1860 H   0  0  0  0  0  0  0  0  0  0  0  0
  -37.2116  166.5506  -10.5401 H   0  0  0  0  0  0  0  0  0  0  0  0
  -38.4112  166.0477   -8.0931 H   0  0  0  0  0  0  0  0  0  0  0  0
  -38.5964  165.6530   -5.6361 H   0  0  0  0  0  0  0  0  0  0  0  0
  -37.9610  164.1310   -3.8230 H   0  0  0  0  0  0  0  0  0  0  0  0
  -38.9680  163.5160   -2.1170 H   0  0  0  0  0  0  0  0  0  0  0  0
  -37.0978  161.1144   -0.8211 H   0  0  0  0  0  0  0  0  0  0  0  0
  -37.7202  159.5539    1.0163 H   0  0  0  0  0  0  0  0  0  0  0  0
  -41.2723  161.9618   -1.4974 H   0  0  0  0  0  0  0  0  0  0  0  0
  -37.8342  161.4442   -6.2489 H   0  0  0  0  0  0  0  0  0  0  0  0
  -37.6583  161.8386   -8.7040 H   0  0  0  0  0  0  0  0  0  0  0  0
  -35.8604  162.4307  -10.4788 H   0  0  0  0  0  0  0  0  0  0  0  0
  -33.7188  163.1758  -11.4527 H   0  0  0  0  0  0  0  0  0  0  0  0
  1  2  1  0
  2  3  1  0
  3  4  2  0
  3  5  1  0
  5  6  2  0
  6  7  1  0
  7  8  1  0
  8  9  1  0
  9 10  1  0
 10 11  2  0
 11 12  1  0
 12 13  1  0
 13 14  1  0
 14 15  2  0
 14 16  1  0
 16 17  1  0
 17 18  1  0
 18 19  2  0
 19 20  1  0
 20 21  1  0
 20 22  2  0
 22 23  1  0
 23 24  1  0
 23 25  1  0
 23 26  1  0
 22 27  1  0
 12 28  2  0
 28 29  1  0
  7 30  2  0
 30 31  1  0
 31 32  2  0
 32  5  1  0
 29  9  2  0
 27 17  2  0
  1 33  1  0
  1 34  1  0
  1 35  1  0
  2 36  1  0
  6 37  1  0
 10 38  1  0
 11 39  1  0
 13 40  1  0
 16 41  1  0
 18 42  1  0
 19 43  1  0
 27 44  1  0
 28 45  1  0
 29 46  1  0
 30 47  1  0
 31 48  1  0
M  END
>  <meeko>  (8) 
{"is_sidechain": false}

>  <vina_affinity_kcal_mol>  (8) 
-9.977

>  <pose_rank>  (8) 
8

$$$$

     RDKit          3D

 48 50  0  0  0  0  0  0  0  0999 V2000
  -34.4010  148.6910    6.2740 C   0  0  0  0  0  0  0  0  0  0  0  0
  -34.2370  150.1150    6.1650 N   0  0  0  0  0  0  0  0  0  0  0  0
  -35.3080  150.9760    6.0550 C   0  0  0  0  0  0  0  0  0  0  0  0
  -36.4730  150.6160    5.9350 O   0  0  0  0  0  0  0  0  0  0  0  0
  -34.9370  152.4270    6.1040 C   0  0  0  0  0  0  0  0  0  0  0  0
  -35.9040  153.3760    6.3950 C   0  0  0  0  0  0  0  0  0  0  0  0
  -35.5110  154.7070    6.4130 C   0  0  0  0  0  0  0  0  0  0  0  0
  -36.4720  155.6390    6.7340 O   0  0  0  0  0  0  0  0  0  0  0  0
  -36.9990  156.3700    5.6950 C   0  0  0  0  0  0  0  0  0  0  0  0
  -37.8440  155.8030    4.7410 C   0  0  0  0  0  0  0  0  0  0  0  0
  -38.3770  156.6030    3.7260 C   0  0  0  0  0  0  0  0  0  0  0  0
  -38.0790  157.9720    3.6610 C   0  0  0  0  0  0  0  0  0  0  0  0
  -38.6630  158.7110    2.6120 N   0  0  0  0  0  0  0  0  0  0  0  0
  -38.3140  158.6840    1.2690 C   0  0  0  0  0  0  0  0  0  0  0  0
  -37.5070  157.9150    0.7680 O   0  0  0  0  0  0  0  0  0  0  0  0
  -39.0190  159.6590    0.5750 N   0  0  0  0  0  0  0  0  0  0  0  0
  -39.0320  159.8760   -0.8180 C   0  0  0  0  0  0  0  0  0  0  0  0
  -39.0990  158.8560   -1.7640 C   0  0  0  0  0  0  0  0  0  0  0  0
  -39.1180  159.1580   -3.1300 C   0  0  0  0  0  0  0  0  0  0  0  0
  -39.0770  160.4840   -3.5650 C   0  0  0  0  0  0  0  0  0  0  0  0
  -39.1060  160.7700   -5.2650 Cl  0  0  0  0  0  0  0  0  0  0  0  0
  -39.0180  161.5260   -2.6360 C   0  0  0  0  0  0  0  0  0  0  0  0
  -38.9770  162.9660   -3.0710 C   0  0  0  0  0  0  0  0  0  0  0  0
  -38.8140  163.8330   -2.0330 F   0  0  0  0  0  0  0  0  0  0  0  0
  -40.0960  163.3590   -3.7350 F   0  0  0  0  0  0  0  0  0  0  0  0
  -37.9420  163.2310   -3.9230 F   0  0  0  0  0  0  0  0  0  0  0  0
  -38.9990  161.2050   -1.2620 C   0  0  0  0  0  0  0  0  0  0  0  0
  -37.2570  158.5310    4.6440 C   0  0  0  0  0  0  0  0  0  0  0  0
  -36.7240  157.7340    5.6620 C   0  0  0  0  0  0  0  0  0  0  0  0
  -34.1790  155.0480    6.1840 C   0  0  0  0  0  0  0  0  0  0  0  0
  -33.2860  154.0290    5.9060 C   0  0  0  0  0  0  0  0  0  0  0  0
  -33.6270  152.7250    5.8530 N   0  0  0  0  0  0  0  0  0  0  0  0
  -34.4338  148.4059    7.3359 H   0  0  0  0  0  0  0  0  0  0  0  0
  -35.3396  148.3915    5.7847 H   0  0  0  0  0  0  0  0  0  0  0  0
  -33.5551  148.1860    5.7847 H   0  0  0  0  0  0  0  0  0  0  0  0
  -33.3380  150.5460    6.3640 H   0  0  0  0  0  0  0  0  0  0  0  0
  -36.9441  153.0853    6.6039 H   0  0  0  0  0  0  0  0  0  0  0  0
  -38.0897  154.7318    4.7871 H   0  0  0  0  0  0  0  0  0  0  0  0
  -39.0376  156.1537    2.9698 H   0  0  0  0  0  0  0  0  0  0  0  0
  -39.5280  159.1810    2.8330 H   0  0  0  0  0  0  0  0  0  0  0  0
  -39.4340  160.3810    1.1440 H   0  0  0  0  0  0  0  0  0  0  0  0
  -39.1372  157.8070   -1.4353 H   0  0  0  0  0  0  0  0  0  0  0  0
  -39.1657  158.3435   -3.8678 H   0  0  0  0  0  0  0  0  0  0  0  0
  -38.9573  162.0174   -0.5215 H   0  0  0  0  0  0  0  0  0  0  0  0
  -37.0276  159.6065    4.6165 H   0  0  0  0  0  0  0  0  0  0  0  0
  -36.0871  158.1853    6.4370 H   0  0  0  0  0  0  0  0  0  0  0  0
  -33.8479  156.0963    6.2232 H   0  0  0  0  0  0  0  0  0  0  0  0
  -32.2362  154.2978    5.7171 H   0  0  0  0  0  0  0  0  0  0  0  0
  1  2  1  0
  2  3  1  0
  3  4  2  0
  3  5  1  0
  5  6  2  0
  6  7  1  0
  7  8  1  0
  8  9  1  0
  9 10  1  0
 10 11  2  0
 11 12  1  0
 12 13  1  0
 13 14  1  0
 14 15  2  0
 14 16  1  0
 16 17  1  0
 17 18  1  0
 18 19  2  0
 19 20  1  0
 20 21  1  0
 20 22  2  0
 22 23  1  0
 23 24  1  0
 23 25  1  0
 23 26  1  0
 22 27  1  0
 12 28  2  0
 28 29  1  0
  7 30  2  0
 30 31  1  0
 31 32  2  0
 32  5  1  0
 29  9  2  0
 27 17  2  0
  1 33  1  0
  1 34  1  0
  1 35  1  0
  2 36  1  0
  6 37  1  0
 10 38  1  0
 11 39  1  0
 13 40  1  0
 16 41  1  0
 18 42  1  0
 19 43  1  0
 27 44  1  0
 28 45  1  0
 29 46  1  0
 30 47  1  0
 31 48  1  0
M  END
>  <meeko>  (9) 
{"is_sidechain": false}

>  <vina_affinity_kcal_mol>  (9) 
-9.884

>  <pose_rank>  (9) 
9

$$$$

     RDKit          3D

 48 50  0  0  0  0  0  0  0  0999 V2000
  -34.4910  148.5980    1.9990 C   0  0  0  0  0  0  0  0  0  0  0  0
  -34.5080  149.3060    3.2500 N   0  0  0  0  0  0  0  0  0  0  0  0
  -35.5410  149.1820    4.1560 C   0  0  0  0  0  0  0  0  0  0  0  0
  -36.5720  148.5560    3.9440 O   0  0  0  0  0  0  0  0  0  0  0  0
  -35.3010  149.8810    5.4600 C   0  0  0  0  0  0  0  0  0  0  0  0
  -34.6960  151.1270    5.4720 C   0  0  0  0  0  0  0  0  0  0  0  0
  -34.4830  151.7240    6.7080 C   0  0  0  0  0  0  0  0  0  0  0  0
  -33.9100  152.9760    6.7070 O   0  0  0  0  0  0  0  0  0  0  0  0
  -34.6700  154.0060    6.2040 C   0  0  0  0  0  0  0  0  0  0  0  0
  -35.9480  154.2900    6.6860 C   0  0  0  0  0  0  0  0  0  0  0  0
  -36.6610  155.3710    6.1600 C   0  0  0  0  0  0  0  0  0  0  0  0
  -36.1020  156.1790    5.1600 C   0  0  0  0  0  0  0  0  0  0  0  0
  -36.8820  157.2550    4.6880 N   0  0  0  0  0  0  0  0  0  0  0  0
  -37.7860  157.2400    3.6350 C   0  0  0  0  0  0  0  0  0  0  0  0
  -38.1300  156.2420    3.0190 O   0  0  0  0  0  0  0  0  0  0  0  0
  -38.2440  158.5260    3.3830 N   0  0  0  0  0  0  0  0  0  0  0  0
  -39.2500  158.9130    2.4740 C   0  0  0  0  0  0  0  0  0  0  0  0
  -40.6100  158.6860    2.6750 C   0  0  0  0  0  0  0  0  0  0  0  0
  -41.5460  159.1120    1.7270 C   0  0  0  0  0  0  0  0  0  0  0  0
  -41.1350  159.7770    0.5710 C   0  0  0  0  0  0  0  0  0  0  0  0
  -42.3520  160.2700   -0.5460 Cl  0  0  0  0  0  0  0  0  0  0  0  0
  -39.7770  160.0260    0.3490 C   0  0  0  0  0  0  0  0  0  0  0  0
  -39.3000  160.7430   -0.8840 C   0  0  0  0  0  0  0  0  0  0  0  0
  -39.6810  162.0490   -0.9240 F   0  0  0  0  0  0  0  0  0  0  0  0
  -39.7360  160.1730   -2.0390 F   0  0  0  0  0  0  0  0  0  0  0  0
  -37.9370  160.7650   -0.9870 F   0  0  0  0  0  0  0  0  0  0  0  0
  -38.8450  159.5880    1.3150 C   0  0  0  0  0  0  0  0  0  0  0  0
  -34.8080  155.9010    4.7110 C   0  0  0  0  0  0  0  0  0  0  0  0
  -34.0910  154.8220    5.2370 C   0  0  0  0  0  0  0  0  0  0  0  0
  -34.9070  151.0910    7.8740 C   0  0  0  0  0  0  0  0  0  0  0  0
  -35.5060  149.8490    7.7590 C   0  0  0  0  0  0  0  0  0  0  0  0
  -35.7100  149.2200    6.5840 N   0  0  0  0  0  0  0  0  0  0  0  0
  -34.4650  147.5152    2.1908 H   0  0  0  0  0  0  0  0  0  0  0  0
  -35.3954  148.8470    1.4245 H   0  0  0  0  0  0  0  0  0  0  0  0
  -33.5996  148.8901    1.4245 H   0  0  0  0  0  0  0  0  0  0  0  0
  -33.6680  149.7650    3.5940 H   0  0  0  0  0  0  0  0  0  0  0  0
  -34.3956  151.6248    4.5382 H   0  0  0  0  0  0  0  0  0  0  0  0
  -36.3922  153.6665    7.4759 H   0  0  0  0  0  0  0  0  0  0  0  0
  -37.6717  155.5901    6.5348 H   0  0  0  0  0  0  0  0  0  0  0  0
  -36.9090  158.0720    5.2790 H   0  0  0  0  0  0  0  0  0  0  0  0
  -37.6860  159.2700    3.7750 H   0  0  0  0  0  0  0  0  0  0  0  0
  -40.9495  158.1688    3.5845 H   0  0  0  0  0  0  0  0  0  0  0  0
  -42.6163  158.9210    1.8942 H   0  0  0  0  0  0  0  0  0  0  0  0
  -37.7743  159.7816    1.1536 H   0  0  0  0  0  0  0  0  0  0  0  0
  -34.3502  156.5358    3.9380 H   0  0  0  0  0  0  0  0  0  0  0  0
  -33.0686  154.6181    4.8862 H   0  0  0  0  0  0  0  0  0  0  0  0
  -34.7697  151.5645    8.8573 H   0  0  0  0  0  0  0  0  0  0  0  0
  -35.8350  149.3454    8.6800 H   0  0  0  0  0  0  0  0  0  0  0  0
  1  2  1  0
  2  3  1  0
  3  4  2  0
  3  5  1  0
  5  6  2  0
  6  7  1  0
  7  8  1  0
  8  9  1  0
  9 10  1  0
 10 11  2  0
 11 12  1  0
 12 13  1  0
 13 14  1  0
 14 15  2  0
 14 16  1  0
 16 17  1  0
 17 18  1  0
 18 19  2  0
 19 20  1  0
 20 21  1  0
 20 22  2  0
 22 23  1  0
 23 24  1  0
 23 25  1  0
 23 26  1  0
 22 27  1  0
 12 28  2  0
 28 29  1  0
  7 30  2  0
 30 31  1  0
 31 32  2  0
 32  5  1  0
 29  9  2  0
 27 17  2  0
  1 33  1  0
  1 34  1  0
  1 35  1  0
  2 36  1  0
  6 37  1  0
 10 38  1  0
 11 39  1  0
 13 40  1  0
 16 41  1  0
 18 42  1  0
 19 43  1  0
 27 44  1  0
 28 45  1  0
 29 46  1  0
 30 47  1  0
 31 48  1  0
M  END
>  <meeko>  (10) 
{"is_sidechain": false}

>  <vina_affinity_kcal_mol>  (10) 
-9.833

>  <pose_rank>  (10) 
10

$$$$
