
     RDKit          3D

 54 57  0  0  0  0  0  0  0  0999 V2000
   -5.2050    0.1290  -13.3270 C   0  0  0  0  0  0  0  0  0  0  0  0
   -5.5060    1.0020  -14.5130 C   0  0  0  0  0  0  0  0  0  0  0  0
   -5.6120    2.3840  -14.3070 C   0  0  0  0  0  0  0  0  0  0  0  0
   -5.8810    3.2520  -15.3710 C   0  0  0  0  0  0  0  0  0  0  0  0
   -6.0380    2.7800  -16.6810 C   0  0  0  0  0  0  0  0  0  0  0  0
   -6.3430    3.7010  -17.6860 N   0  0  0  0  0  0  0  0  0  0  0  0
   -7.4380    4.5200  -17.9490 C   0  0  0  0  0  0  0  0  0  0  0  0
   -7.4870    5.3170  -19.0170 N   0  0  0  0  0  0  0  0  0  0  0  0
   -8.5880    6.0680  -19.1580 C   0  0  0  0  0  0  0  0  0  0  0  0
   -9.6420    6.0430  -18.2760 C   0  0  0  0  0  0  0  0  0  0  0  0
   -9.5390    5.1930  -17.1920 C   0  0  0  0  0  0  0  0  0  0  0  0
  -10.5630    5.0670  -16.2250 N   0  0  0  0  0  0  0  0  0  0  0  0
  -11.7010    5.9840  -16.2700 C   0  0  0  0  0  0  0  0  0  0  0  0
  -10.6820    3.9830  -15.3030 C   0  0  0  0  0  0  0  0  0  0  0  0
   -9.7750    2.8630  -15.3810 C   0  0  0  0  0  0  0  0  0  0  0  0
   -9.7970    1.7360  -14.5280 C   0  0  0  0  0  0  0  0  0  0  0  0
  -10.8110    1.8400  -13.5840 C   0  0  0  0  0  0  0  0  0  0  0  0
  -11.1060    0.9190  -12.6070 C   0  0  0  0  0  0  0  0  0  0  0  0
  -10.5150   -0.3900  -12.2420 C   0  0  0  0  0  0  0  0  0  0  0  0
  -12.1670    1.4790  -11.9340 N   0  0  0  0  0  0  0  0  0  0  0  0
  -12.8680    0.9160  -10.8040 C   0  0  0  0  0  0  0  0  0  0  0  0
  -12.5690    2.6720  -12.4170 N   0  0  0  0  0  0  0  0  0  0  0  0
  -11.7420    2.9290  -13.4430 C   0  0  0  0  0  0  0  0  0  0  0  0
  -11.6960    4.0340  -14.3080 C   0  0  0  0  0  0  0  0  0  0  0  0
   -8.4310    4.4340  -17.0520 N   0  0  0  0  0  0  0  0  0  0  0  0
   -5.9280    1.4040  -16.8880 C   0  0  0  0  0  0  0  0  0  0  0  0
   -5.6610    0.5210  -15.8240 C   0  0  0  0  0  0  0  0  0  0  0  0
   -5.5350   -1.2150  -16.2230 S   0  0  0  0  0  0  0  0  0  0  0  0
   -5.6260   -1.1740  -17.9060 N   0  0  0  0  0  0  0  0  0  0  0  0
   -6.7260   -1.8990  -15.7750 O   0  0  0  0  0  0  0  0  0  0  0  0
   -4.2140   -1.6890  -15.8810 O   0  0  0  0  0  0  0  0  0  0  0  0
   -5.3983    0.6897  -12.4006 H   0  0  0  0  0  0  0  0  0  0  0  0
   -5.8473   -0.7635  -13.3563 H   0  0  0  0  0  0  0  0  0  0  0  0
   -4.1491   -0.1780  -13.3563 H   0  0  0  0  0  0  0  0  0  0  0  0
   -5.4818    2.7925  -13.2940 H   0  0  0  0  0  0  0  0  0  0  0  0
   -5.9714    4.3305  -15.1744 H   0  0  0  0  0  0  0  0  0  0  0  0
   -5.7230    3.7440  -18.4840 H   0  0  0  0  0  0  0  0  0  0  0  0
   -8.6516    6.7405  -20.0261 H   0  0  0  0  0  0  0  0  0  0  0  0
  -10.5305    6.6736  -18.4271 H   0  0  0  0  0  0  0  0  0  0  0  0
  -12.0112    6.2340  -15.2447 H   0  0  0  0  0  0  0  0  0  0  0  0
  -11.4104    6.9033  -16.7996 H   0  0  0  0  0  0  0  0  0  0  0  0
  -12.5375    5.5046  -16.7996 H   0  0  0  0  0  0  0  0  0  0  0  0
   -9.0055    2.8884  -16.1666 H   0  0  0  0  0  0  0  0  0  0  0  0
   -9.1016    0.8869  -14.6020 H   0  0  0  0  0  0  0  0  0  0  0  0
  -10.4739   -0.4811  -11.1465 H   0  0  0  0  0  0  0  0  0  0  0  0
  -11.1348   -1.1999  -12.6543 H   0  0  0  0  0  0  0  0  0  0  0  0
   -9.4976   -0.4607  -12.6543 H   0  0  0  0  0  0  0  0  0  0  0  0
  -12.4133    1.2812   -9.8714 H   0  0  0  0  0  0  0  0  0  0  0  0
  -13.9248    1.2192  -10.8399 H   0  0  0  0  0  0  0  0  0  0  0  0
  -12.8000   -0.1813  -10.8399 H   0  0  0  0  0  0  0  0  0  0  0  0
  -12.3949    4.8791  -14.2219 H   0  0  0  0  0  0  0  0  0  0  0  0
   -6.0525    1.0008  -17.9038 H   0  0  0  0  0  0  0  0  0  0  0  0
   -4.9070   -1.7390  -18.3560 H   0  0  0  0  0  0  0  0  0  0  0  0
   -5.6220   -0.2030  -18.2190 H   0  0  0  0  0  0  0  0  0  0  0  0
  1  2  1  0
  2  3  1  0
  3  4  2  0
  4  5  1  0
  5  6  1  0
  6  7  1  0
  7  8  2  0
  8  9  1  0
  9 10  2  0
 10 11  1  0
 11 12  1  0
 12 13  1  0
 12 14  1  0
 14 15  1  0
 15 16  2  0
 16 17  1  0
 17 18  2  0
 18 19  1  0
 18 20  1  0
 20 21  1  0
 20 22  1  0
 22 23  2  0
 23 24  1  0
 11 25  2  0
  5 26  2  0
 26 27  1  0
 27 28  1  0
 28 29  1  0
 28 30  2  0
 28 31  2  0
 27  2  2  0
 25  7  1  0
 24 14  2  0
 23 17  1  0
  1 32  1  0
  1 33  1  0
  1 34  1  0
  3 35  1  0
  4 36  1  0
  6 37  1  0
  9 38  1  0
 10 39  1  0
 13 40  1  0
 13 41  1  0
 13 42  1  0
 15 43  1  0
 16 44  1  0
 19 45  1  0
 19 46  1  0
 19 47  1  0
 21 48  1  0
 21 49  1  0
 21 50  1  0
 24 51  1  0
 26 52  1  0
 29 53  1  0
 29 54  1  0
M  END
>  <meeko>  (1) 
{"is_sidechain": false}

>  <vina_affinity_kcal_mol>  (1) 
-9.614

>  <pose_rank>  (1) 
1

$$$$

     RDKit          3D

 54 57  0  0  0  0  0  0  0  0999 V2000
   -5.2800    0.3590  -13.3790 C   0  0  0  0  0  0  0  0  0  0  0  0
   -5.5690    1.2580  -14.5490 C   0  0  0  0  0  0  0  0  0  0  0  0
   -5.5810    2.6420  -14.3320 C   0  0  0  0  0  0  0  0  0  0  0  0
   -5.8340    3.5340  -15.3800 C   0  0  0  0  0  0  0  0  0  0  0  0
   -6.0670    3.0830  -16.6860 C   0  0  0  0  0  0  0  0  0  0  0  0
   -6.3500    4.0290  -17.6740 N   0  0  0  0  0  0  0  0  0  0  0  0
   -7.4770    4.7780  -18.0040 C   0  0  0  0  0  0  0  0  0  0  0  0
   -7.5300    5.5350  -19.1000 N   0  0  0  0  0  0  0  0  0  0  0  0
   -8.6640    6.2180  -19.3050 C   0  0  0  0  0  0  0  0  0  0  0  0
   -9.7480    6.1650  -18.4600 C   0  0  0  0  0  0  0  0  0  0  0  0
   -9.6390    5.3570  -17.3440 C   0  0  0  0  0  0  0  0  0  0  0  0
  -10.6890    5.2070  -16.4100 N   0  0  0  0  0  0  0  0  0  0  0  0
  -11.9040    6.0030  -16.5720 C   0  0  0  0  0  0  0  0  0  0  0  0
  -10.7480    4.1910  -15.4080 C   0  0  0  0  0  0  0  0  0  0  0  0
  -11.7770    4.2310  -14.3960 C   0  0  0  0  0  0  0  0  0  0  0  0
  -11.9330    3.2850  -13.3580 C   0  0  0  0  0  0  0  0  0  0  0  0
  -10.9650    2.2920  -13.4310 C   0  0  0  0  0  0  0  0  0  0  0  0
  -10.8330    1.2240  -12.5760 C   0  0  0  0  0  0  0  0  0  0  0  0
  -11.5950    0.7870  -11.3820 C   0  0  0  0  0  0  0  0  0  0  0  0
   -9.7500    0.5360  -13.0710 N   0  0  0  0  0  0  0  0  0  0  0  0
   -9.1810   -0.6800  -12.5370 C   0  0  0  0  0  0  0  0  0  0  0  0
   -9.1830    1.0920  -14.1600 N   0  0  0  0  0  0  0  0  0  0  0  0
   -9.9190    2.1860  -14.4150 C   0  0  0  0  0  0  0  0  0  0  0  0
   -9.7880    3.1430  -15.4340 C   0  0  0  0  0  0  0  0  0  0  0  0
   -8.4970    4.6670  -17.1390 N   0  0  0  0  0  0  0  0  0  0  0  0
   -6.0500    1.7050  -16.9040 C   0  0  0  0  0  0  0  0  0  0  0  0
   -5.8010    0.7980  -15.8560 C   0  0  0  0  0  0  0  0  0  0  0  0
   -5.7980   -0.9380  -16.2690 S   0  0  0  0  0  0  0  0  0  0  0  0
   -5.9050   -0.8780  -17.9510 N   0  0  0  0  0  0  0  0  0  0  0  0
   -7.0280   -1.5440  -15.8130 O   0  0  0  0  0  0  0  0  0  0  0  0
   -4.5090   -1.5040  -15.9460 O   0  0  0  0  0  0  0  0  0  0  0  0
   -5.4565    0.9081  -12.4423 H   0  0  0  0  0  0  0  0  0  0  0  0
   -5.9411   -0.5193  -13.4193 H   0  0  0  0  0  0  0  0  0  0  0  0
   -4.2310    0.0305  -13.4193 H   0  0  0  0  0  0  0  0  0  0  0  0
   -5.3886    3.0335  -13.3222 H   0  0  0  0  0  0  0  0  0  0  0  0
   -5.8504    4.6144  -15.1738 H   0  0  0  0  0  0  0  0  0  0  0  0
   -5.6650    4.1590  -18.4060 H   0  0  0  0  0  0  0  0  0  0  0  0
   -8.7320    6.8563  -20.1982 H   0  0  0  0  0  0  0  0  0  0  0  0
  -10.6626    6.7411  -18.6637 H   0  0  0  0  0  0  0  0  0  0  0  0
  -12.3050    6.2657  -15.5819 H   0  0  0  0  0  0  0  0  0  0  0  0
  -11.6685    6.9225  -17.1280 H   0  0  0  0  0  0  0  0  0  0  0  0
  -12.6529    5.4199  -17.1280 H   0  0  0  0  0  0  0  0  0  0  0  0
  -12.4956    5.0628  -14.4362 H   0  0  0  0  0  0  0  0  0  0  0  0
  -12.7200    3.3294  -12.5908 H   0  0  0  0  0  0  0  0  0  0  0  0
  -11.0588    1.0945  -10.4721 H   0  0  0  0  0  0  0  0  0  0  0  0
  -12.5926    1.2502  -11.3939 H   0  0  0  0  0  0  0  0  0  0  0  0
  -11.6990   -0.3080  -11.3939 H   0  0  0  0  0  0  0  0  0  0  0  0
   -9.1991   -0.6414  -11.4378 H   0  0  0  0  0  0  0  0  0  0  0  0
   -9.7689   -1.5428  -12.8833 H   0  0  0  0  0  0  0  0  0  0  0  0
   -8.1419   -0.7815  -12.8833 H   0  0  0  0  0  0  0  0  0  0  0  0
   -8.9987    3.0858  -16.1980 H   0  0  0  0  0  0  0  0  0  0  0  0
   -6.2352    1.3185  -17.9171 H   0  0  0  0  0  0  0  0  0  0  0  0
   -5.8530    0.0710  -18.3180 H   0  0  0  0  0  0  0  0  0  0  0  0
   -6.7430   -1.3750  -18.2520 H   0  0  0  0  0  0  0  0  0  0  0  0
  1  2  1  0
  2  3  1  0
  3  4  2  0
  4  5  1  0
  5  6  1  0
  6  7  1  0
  7  8  2  0
  8  9  1  0
  9 10  2  0
 10 11  1  0
 11 12  1  0
 12 13  1  0
 12 14  1  0
 14 15  1  0
 15 16  2  0
 16 17  1  0
 17 18  2  0
 18 19  1  0
 18 20  1  0
 20 21  1  0
 20 22  1  0
 22 23  2  0
 23 24  1  0
 11 25  2  0
  5 26  2  0
 26 27  1  0
 27 28  1  0
 28 29  1  0
 28 30  2  0
 28 31  2  0
 27  2  2  0
 25  7  1  0
 24 14  2  0
 23 17  1  0
  1 32  1  0
  1 33  1  0
  1 34  1  0
  3 35  1  0
  4 36  1  0
  6 37  1  0
  9 38  1  0
 10 39  1  0
 13 40  1  0
 13 41  1  0
 13 42  1  0
 15 43  1  0
 16 44  1  0
 19 45  1  0
 19 46  1  0
 19 47  1  0
 21 48  1  0
 21 49  1  0
 21 50  1  0
 24 51  1  0
 26 52  1  0
 29 53  1  0
 29 54  1  0
M  END
>  <meeko>  (2) 
{"is_sidechain": false}

>  <vina_affinity_kcal_mol>  (2) 
-9.59

>  <pose_rank>  (2) 
2

$$$$

     RDKit          3D

 54 57  0  0  0  0  0  0  0  0999 V2000
   -4.3480   -2.6220  -14.1640 C   0  0  0  0  0  0  0  0  0  0  0  0
   -5.3000   -1.6990  -14.8710 C   0  0  0  0  0  0  0  0  0  0  0  0
   -5.0810   -1.4370  -16.2300 C   0  0  0  0  0  0  0  0  0  0  0  0
   -5.9370   -0.5940  -16.9480 C   0  0  0  0  0  0  0  0  0  0  0  0
   -7.0500    0.0070  -16.3460 C   0  0  0  0  0  0  0  0  0  0  0  0
   -7.8380    0.8670  -17.1150 N   0  0  0  0  0  0  0  0  0  0  0  0
   -7.9820    2.2500  -17.1790 C   0  0  0  0  0  0  0  0  0  0  0  0
   -7.1280    3.0220  -17.8530 N   0  0  0  0  0  0  0  0  0  0  0  0
   -7.3640    4.3400  -17.8330 C   0  0  0  0  0  0  0  0  0  0  0  0
   -8.4250    4.9130  -17.1730 C   0  0  0  0  0  0  0  0  0  0  0  0
   -9.2820    4.0640  -16.4990 C   0  0  0  0  0  0  0  0  0  0  0  0
  -10.4160    4.5300  -15.7960 N   0  0  0  0  0  0  0  0  0  0  0  0
  -11.1080    5.7260  -16.2750 C   0  0  0  0  0  0  0  0  0  0  0  0
  -11.0740    3.8170  -14.7490 C   0  0  0  0  0  0  0  0  0  0  0  0
  -12.4370    4.1400  -14.3980 C   0  0  0  0  0  0  0  0  0  0  0  0
  -13.1880    3.5060  -13.3820 C   0  0  0  0  0  0  0  0  0  0  0  0
  -12.4480    2.5130  -12.7540 C   0  0  0  0  0  0  0  0  0  0  0  0
  -12.8790    1.7080  -11.7270 C   0  0  0  0  0  0  0  0  0  0  0  0
  -14.1590    1.6160  -10.9850 C   0  0  0  0  0  0  0  0  0  0  0  0
  -11.7990    0.8960  -11.4680 N   0  0  0  0  0  0  0  0  0  0  0  0
  -11.7200   -0.1450  -10.4680 C   0  0  0  0  0  0  0  0  0  0  0  0
  -10.7210    1.1340  -12.2420 N   0  0  0  0  0  0  0  0  0  0  0  0
  -11.0920    2.1330  -13.0580 C   0  0  0  0  0  0  0  0  0  0  0  0
  -10.3710    2.7830  -14.0720 C   0  0  0  0  0  0  0  0  0  0  0  0
   -9.0450    2.7340  -16.5210 N   0  0  0  0  0  0  0  0  0  0  0  0
   -7.2720   -0.2580  -14.9930 C   0  0  0  0  0  0  0  0  0  0  0  0
   -6.4160   -1.1010  -14.2600 C   0  0  0  0  0  0  0  0  0  0  0  0
   -6.8150   -1.3650  -12.5400 S   0  0  0  0  0  0  0  0  0  0  0  0
   -8.1540   -0.3580  -12.3530 N   0  0  0  0  0  0  0  0  0  0  0  0
   -5.7730   -0.8020  -11.7130 O   0  0  0  0  0  0  0  0  0  0  0  0
   -7.2750   -2.7220  -12.3590 O   0  0  0  0  0  0  0  0  0  0  0  0
   -4.4660   -2.5076  -13.0764 H   0  0  0  0  0  0  0  0  0  0  0  0
   -4.5657   -3.6619  -14.4491 H   0  0  0  0  0  0  0  0  0  0  0  0
   -3.3154   -2.3722  -14.4491 H   0  0  0  0  0  0  0  0  0  0  0  0
   -4.2237   -1.9007  -16.7400 H   0  0  0  0  0  0  0  0  0  0  0  0
   -5.7308   -0.3987  -18.0107 H   0  0  0  0  0  0  0  0  0  0  0  0
   -8.5600    0.4510  -17.6880 H   0  0  0  0  0  0  0  0  0  0  0  0
   -6.6707    5.0004  -18.3745 H   0  0  0  0  0  0  0  0  0  0  0  0
   -8.5850    6.0013  -17.1810 H   0  0  0  0  0  0  0  0  0  0  0  0
  -11.4516    6.3199  -15.4152 H   0  0  0  0  0  0  0  0  0  0  0  0
  -10.4190    6.3287  -16.8850 H   0  0  0  0  0  0  0  0  0  0  0  0
  -11.9738    5.4291  -16.8850 H   0  0  0  0  0  0  0  0  0  0  0  0
  -12.9298    4.9428  -14.9661 H   0  0  0  0  0  0  0  0  0  0  0  0
  -14.2249    3.7658  -13.1224 H   0  0  0  0  0  0  0  0  0  0  0  0
  -13.9578    1.6305   -9.9036 H   0  0  0  0  0  0  0  0  0  0  0  0
  -14.7989    2.4705  -11.2504 H   0  0  0  0  0  0  0  0  0  0  0  0
  -14.6701    0.6788  -11.2504 H   0  0  0  0  0  0  0  0  0  0  0  0
  -11.7542    0.3063   -9.4654 H   0  0  0  0  0  0  0  0  0  0  0  0
  -12.5684   -0.8347  -10.5888 H   0  0  0  0  0  0  0  0  0  0  0  0
  -10.7773   -0.6987  -10.5888 H   0  0  0  0  0  0  0  0  0  0  0  0
   -9.3354    2.5116  -14.3249 H   0  0  0  0  0  0  0  0  0  0  0  0
   -8.1348    0.2022  -14.4892 H   0  0  0  0  0  0  0  0  0  0  0  0
   -8.0930    0.2340  -11.5260 H   0  0  0  0  0  0  0  0  0  0  0  0
   -9.0040   -0.9230  -12.3760 H   0  0  0  0  0  0  0  0  0  0  0  0
  1  2  1  0
  2  3  1  0
  3  4  2  0
  4  5  1  0
  5  6  1  0
  6  7  1  0
  7  8  2  0
  8  9  1  0
  9 10  2  0
 10 11  1  0
 11 12  1  0
 12 13  1  0
 12 14  1  0
 14 15  1  0
 15 16  2  0
 16 17  1  0
 17 18  2  0
 18 19  1  0
 18 20  1  0
 20 21  1  0
 20 22  1  0
 22 23  2  0
 23 24  1  0
 11 25  2  0
  5 26  2  0
 26 27  1  0
 27 28  1  0
 28 29  1  0
 28 30  2  0
 28 31  2  0
 27  2  2  0
 25  7  1  0
 24 14  2  0
 23 17  1  0
  1 32  1  0
  1 33  1  0
  1 34  1  0
  3 35  1  0
  4 36  1  0
  6 37  1  0
  9 38  1  0
 10 39  1  0
 13 40  1  0
 13 41  1  0
 13 42  1  0
 15 43  1  0
 16 44  1  0
 19 45  1  0
 19 46  1  0
 19 47  1  0
 21 48  1  0
 21 49  1  0
 21 50  1  0
 24 51  1  0
 26 52  1  0
 29 53  1  0
 29 54  1  0
M  END
>  <meeko>  (3) 
{"is_sidechain": false}

>  <vina_affinity_kcal_mol>  (3) 
-9.508

>  <pose_rank>  (3) 
3

$$$$

     RDKit          3D

 54 57  0  0  0  0  0  0  0  0999 V2000
  -14.9320    1.1220   -9.9450 C   0  0  0  0  0  0  0  0  0  0  0  0
  -13.6130    1.0300  -10.6600 C   0  0  0  0  0  0  0  0  0  0  0  0
  -13.3740    1.9080  -11.7250 C   0  0  0  0  0  0  0  0  0  0  0  0
  -12.1630    1.8790  -12.4260 C   0  0  0  0  0  0  0  0  0  0  0  0
  -11.1390    0.9870  -12.0830 C   0  0  0  0  0  0  0  0  0  0  0  0
   -9.9720    0.9880  -12.8510 N   0  0  0  0  0  0  0  0  0  0  0  0
   -9.5960    1.6100  -14.0390 C   0  0  0  0  0  0  0  0  0  0  0  0
   -8.6130    1.1380  -14.8070 N   0  0  0  0  0  0  0  0  0  0  0  0
   -8.3340    1.8290  -15.9200 C   0  0  0  0  0  0  0  0  0  0  0  0
   -9.0070    2.9670  -16.2970 C   0  0  0  0  0  0  0  0  0  0  0  0
  -10.0220    3.4040  -15.4680 C   0  0  0  0  0  0  0  0  0  0  0  0
  -10.7970    4.5520  -15.7550 N   0  0  0  0  0  0  0  0  0  0  0  0
  -11.9280    4.8810  -14.8890 C   0  0  0  0  0  0  0  0  0  0  0  0
  -10.4530    5.5430  -16.7230 C   0  0  0  0  0  0  0  0  0  0  0  0
   -9.9660    6.8340  -16.2970 C   0  0  0  0  0  0  0  0  0  0  0  0
   -9.5980    7.8900  -17.1600 C   0  0  0  0  0  0  0  0  0  0  0  0
   -9.7580    7.5310  -18.4920 C   0  0  0  0  0  0  0  0  0  0  0  0
   -9.4920    8.3240  -19.5820 C   0  0  0  0  0  0  0  0  0  0  0  0
   -8.9910    9.7120  -19.7240 C   0  0  0  0  0  0  0  0  0  0  0  0
   -9.7970    7.5220  -20.6570 N   0  0  0  0  0  0  0  0  0  0  0  0
   -9.6940    7.8720  -22.0550 C   0  0  0  0  0  0  0  0  0  0  0  0
  -10.2450    6.2940  -20.3290 N   0  0  0  0  0  0  0  0  0  0  0  0
  -10.2290    6.2640  -18.9870 C   0  0  0  0  0  0  0  0  0  0  0  0
  -10.5900    5.2330  -18.1040 C   0  0  0  0  0  0  0  0  0  0  0  0
  -10.3050    2.7060  -14.3470 N   0  0  0  0  0  0  0  0  0  0  0  0
  -11.3740    0.1140  -11.0190 C   0  0  0  0  0  0  0  0  0  0  0  0
  -12.5900    0.1320  -10.3100 C   0  0  0  0  0  0  0  0  0  0  0  0
  -12.7620   -1.0290   -8.9650 S   0  0  0  0  0  0  0  0  0  0  0  0
  -11.2710   -1.8170   -9.0160 N   0  0  0  0  0  0  0  0  0  0  0  0
  -13.7510   -2.0240   -9.3100 O   0  0  0  0  0  0  0  0  0  0  0  0
  -12.8170   -0.3080   -7.7150 O   0  0  0  0  0  0  0  0  0  0  0  0
  -14.7616    1.1101   -8.8583 H   0  0  0  0  0  0  0  0  0  0  0  0
  -15.4373    2.0576  -10.2267 H   0  0  0  0  0  0  0  0  0  0  0  0
  -15.5623    0.2656  -10.2267 H   0  0  0  0  0  0  0  0  0  0  0  0
  -14.1502    2.6315  -12.0149 H   0  0  0  0  0  0  0  0  0  0  0  0
  -12.0118    2.5730  -13.2660 H   0  0  0  0  0  0  0  0  0  0  0  0
   -9.2490    0.3280  -12.6020 H   0  0  0  0  0  0  0  0  0  0  0  0
   -7.5222    1.4662  -16.5676 H   0  0  0  0  0  0  0  0  0  0  0  0
   -8.7482    3.5068  -17.2198 H   0  0  0  0  0  0  0  0  0  0  0  0
  -11.6218    4.7919  -13.8362 H   0  0  0  0  0  0  0  0  0  0  0  0
  -12.2557    5.9117  -15.0896 H   0  0  0  0  0  0  0  0  0  0  0  0
  -12.7575    4.1869  -15.0896 H   0  0  0  0  0  0  0  0  0  0  0  0
   -9.8744    7.0089  -15.2149 H   0  0  0  0  0  0  0  0  0  0  0  0
   -9.2319    8.8703  -16.8208 H   0  0  0  0  0  0  0  0  0  0  0  0
   -8.8334   10.1487  -18.7268 H   0  0  0  0  0  0  0  0  0  0  0  0
   -8.0392    9.7037  -20.2753 H   0  0  0  0  0  0  0  0  0  0  0  0
   -9.7287   10.3135  -20.2753 H   0  0  0  0  0  0  0  0  0  0  0  0
   -9.3846    8.9235  -22.1479 H   0  0  0  0  0  0  0  0  0  0  0  0
   -8.9479    7.2259  -22.5407 H   0  0  0  0  0  0  0  0  0  0  0  0
  -10.6711    7.7331  -22.5407 H   0  0  0  0  0  0  0  0  0  0  0  0
  -10.9527    4.2558  -18.4556 H   0  0  0  0  0  0  0  0  0  0  0  0
  -10.5922   -0.6032  -10.7285 H   0  0  0  0  0  0  0  0  0  0  0  0
  -11.3430   -2.7800   -9.3390 H   0  0  0  0  0  0  0  0  0  0  0  0
  -10.8180   -1.7360   -8.1060 H   0  0  0  0  0  0  0  0  0  0  0  0
  1  2  1  0
  2  3  1  0
  3  4  2  0
  4  5  1  0
  5  6  1  0
  6  7  1  0
  7  8  2  0
  8  9  1  0
  9 10  2  0
 10 11  1  0
 11 12  1  0
 12 13  1  0
 12 14  1  0
 14 15  1  0
 15 16  2  0
 16 17  1  0
 17 18  2  0
 18 19  1  0
 18 20  1  0
 20 21  1  0
 20 22  1  0
 22 23  2  0
 23 24  1  0
 11 25  2  0
  5 26  2  0
 26 27  1  0
 27 28  1  0
 28 29  1  0
 28 30  2  0
 28 31  2  0
 27  2  2  0
 25  7  1  0
 24 14  2  0
 23 17  1  0
  1 32  1  0
  1 33  1  0
  1 34  1  0
  3 35  1  0
  4 36  1  0
  6 37  1  0
  9 38  1  0
 10 39  1  0
 13 40  1  0
 13 41  1  0
 13 42  1  0
 15 43  1  0
 16 44  1  0
 19 45  1  0
 19 46  1  0
 19 47  1  0
 21 48  1  0
 21 49  1  0
 21 50  1  0
 24 51  1  0
 26 52  1  0
 29 53  1  0
 29 54  1  0
M  END
>  <meeko>  (4) 
{"is_sidechain": false}

>  <vina_affinity_kcal_mol>  (4) 
-9.411

>  <pose_rank>  (4) 
4

$$$$

     RDKit          3D

 54 57  0  0  0  0  0  0  0  0999 V2000
  -14.7390    0.0610   -7.6500 C   0  0  0  0  0  0  0  0  0  0  0  0
  -13.9810    0.4290   -8.8950 C   0  0  0  0  0  0  0  0  0  0  0  0
  -14.6730    1.0830   -9.9220 C   0  0  0  0  0  0  0  0  0  0  0  0
  -14.0240    1.4600  -11.1020 C   0  0  0  0  0  0  0  0  0  0  0  0
  -12.6580    1.2150  -11.2980 C   0  0  0  0  0  0  0  0  0  0  0  0
  -12.0860    1.5860  -12.5180 N   0  0  0  0  0  0  0  0  0  0  0  0
  -12.2360    2.6800  -13.3650 C   0  0  0  0  0  0  0  0  0  0  0  0
  -13.3620    3.3930  -13.4110 N   0  0  0  0  0  0  0  0  0  0  0  0
  -13.3920    4.4160  -14.2750 C   0  0  0  0  0  0  0  0  0  0  0  0
  -12.3350    4.7580  -15.0860 C   0  0  0  0  0  0  0  0  0  0  0  0
  -11.1910    3.9890  -14.9900 C   0  0  0  0  0  0  0  0  0  0  0  0
  -10.0340    4.2490  -15.7590 N   0  0  0  0  0  0  0  0  0  0  0  0
   -8.9520    3.2660  -15.7700 C   0  0  0  0  0  0  0  0  0  0  0  0
   -9.9030    5.3190  -16.6950 C   0  0  0  0  0  0  0  0  0  0  0  0
   -9.5770    6.6480  -16.2340 C   0  0  0  0  0  0  0  0  0  0  0  0
   -9.4240    7.7820  -17.0630 C   0  0  0  0  0  0  0  0  0  0  0  0
   -9.6220    7.4590  -18.3990 C   0  0  0  0  0  0  0  0  0  0  0  0
   -9.5480    8.3270  -19.4630 C   0  0  0  0  0  0  0  0  0  0  0  0
   -9.2610    9.7780  -19.5640 C   0  0  0  0  0  0  0  0  0  0  0  0
   -9.8090    7.5340  -20.5560 N   0  0  0  0  0  0  0  0  0  0  0  0
   -9.8540    7.9530  -21.9380 C   0  0  0  0  0  0  0  0  0  0  0  0
  -10.0540    6.2410  -20.2640 N   0  0  0  0  0  0  0  0  0  0  0  0
   -9.9410    6.1580  -18.9290 C   0  0  0  0  0  0  0  0  0  0  0  0
  -10.0890    5.0500  -18.0780 C   0  0  0  0  0  0  0  0  0  0  0  0
  -11.1610    2.9590  -14.1170 N   0  0  0  0  0  0  0  0  0  0  0  0
  -11.9660    0.5680  -10.2730 C   0  0  0  0  0  0  0  0  0  0  0  0
  -12.6100    0.1810   -9.0830 C   0  0  0  0  0  0  0  0  0  0  0  0
  -11.6110   -0.6310   -7.8470 S   0  0  0  0  0  0  0  0  0  0  0  0
  -10.0960   -0.6200   -8.5870 N   0  0  0  0  0  0  0  0  0  0  0  0
  -11.9980   -2.0200   -7.7510 O   0  0  0  0  0  0  0  0  0  0  0  0
  -11.5190    0.2120   -6.6780 O   0  0  0  0  0  0  0  0  0  0  0  0
  -14.1512    0.3464   -6.7651 H   0  0  0  0  0  0  0  0  0  0  0  0
  -15.7025    0.5917   -7.6370 H   0  0  0  0  0  0  0  0  0  0  0  0
  -14.9179   -1.0243   -7.6370 H   0  0  0  0  0  0  0  0  0  0  0  0
  -15.7436    1.3036   -9.7986 H   0  0  0  0  0  0  0  0  0  0  0  0
  -14.5991    1.9606  -11.8949 H   0  0  0  0  0  0  0  0  0  0  0  0
  -11.5140    0.9000  -12.9920 H   0  0  0  0  0  0  0  0  0  0  0  0
  -14.3121    5.0153  -14.3395 H   0  0  0  0  0  0  0  0  0  0  0  0
  -12.3978    5.6078  -15.7816 H   0  0  0  0  0  0  0  0  0  0  0  0
   -8.6748    3.0142  -14.7357 H   0  0  0  0  0  0  0  0  0  0  0  0
   -9.2874    2.3573  -16.2913 H   0  0  0  0  0  0  0  0  0  0  0  0
   -8.0796    3.6868  -16.2913 H   0  0  0  0  0  0  0  0  0  0  0  0
   -9.4367    6.7887  -15.1521 H   0  0  0  0  0  0  0  0  0  0  0  0
   -9.1797    8.7903  -16.6974 H   0  0  0  0  0  0  0  0  0  0  0  0
   -9.1763   10.2062  -18.5543 H   0  0  0  0  0  0  0  0  0  0  0  0
   -8.3158    9.9279  -20.1063 H   0  0  0  0  0  0  0  0  0  0  0  0
  -10.0779   10.2765  -20.1063 H   0  0  0  0  0  0  0  0  0  0  0  0
   -9.9714    9.0457  -21.9862 H   0  0  0  0  0  0  0  0  0  0  0  0
   -8.9194    7.6621  -22.4400 H   0  0  0  0  0  0  0  0  0  0  0  0
  -10.7055    7.4703  -22.4400 H   0  0  0  0  0  0  0  0  0  0  0  0
  -10.3316    4.0456  -18.4554 H   0  0  0  0  0  0  0  0  0  0  0  0
  -10.8939    0.3560  -10.3980 H   0  0  0  0  0  0  0  0  0  0  0  0
   -9.3450   -0.8990   -7.9570 H   0  0  0  0  0  0  0  0  0  0  0  0
   -9.9380    0.2930   -9.0140 H   0  0  0  0  0  0  0  0  0  0  0  0
  1  2  1  0
  2  3  1  0
  3  4  2  0
  4  5  1  0
  5  6  1  0
  6  7  1  0
  7  8  2  0
  8  9  1  0
  9 10  2  0
 10 11  1  0
 11 12  1  0
 12 13  1  0
 12 14  1  0
 14 15  1  0
 15 16  2  0
 16 17  1  0
 17 18  2  0
 18 19  1  0
 18 20  1  0
 20 21  1  0
 20 22  1  0
 22 23  2  0
 23 24  1  0
 11 25  2  0
  5 26  2  0
 26 27  1  0
 27 28  1  0
 28 29  1  0
 28 30  2  0
 28 31  2  0
 27  2  2  0
 25  7  1  0
 24 14  2  0
 23 17  1  0
  1 32  1  0
  1 33  1  0
  1 34  1  0
  3 35  1  0
  4 36  1  0
  6 37  1  0
  9 38  1  0
 10 39  1  0
 13 40  1  0
 13 41  1  0
 13 42  1  0
 15 43  1  0
 16 44  1  0
 19 45  1  0
 19 46  1  0
 19 47  1  0
 21 48  1  0
 21 49  1  0
 21 50  1  0
 24 51  1  0
 26 52  1  0
 29 53  1  0
 29 54  1  0
M  END
>  <meeko>  (5) 
{"is_sidechain": false}

>  <vina_affinity_kcal_mol>  (5) 
-9.231

>  <pose_rank>  (5) 
5

$$$$

     RDKit          3D

 54 57  0  0  0  0  0  0  0  0999 V2000
   -3.4740   -2.7170  -16.5550 C   0  0  0  0  0  0  0  0  0  0  0  0
   -4.4330   -1.5610  -16.6000 C   0  0  0  0  0  0  0  0  0  0  0  0
   -5.7340   -1.7610  -16.1220 C   0  0  0  0  0  0  0  0  0  0  0  0
   -6.6720   -0.7230  -16.1280 C   0  0  0  0  0  0  0  0  0  0  0  0
   -6.3450    0.5580  -16.5930 C   0  0  0  0  0  0  0  0  0  0  0  0
   -7.3440    1.5350  -16.6040 N   0  0  0  0  0  0  0  0  0  0  0  0
   -8.1300    2.1270  -15.6200 C   0  0  0  0  0  0  0  0  0  0  0  0
   -8.0140    1.8060  -14.3310 N   0  0  0  0  0  0  0  0  0  0  0  0
   -8.8330    2.4350  -13.4780 C   0  0  0  0  0  0  0  0  0  0  0  0
   -9.7550    3.3790  -13.8650 C   0  0  0  0  0  0  0  0  0  0  0  0
   -9.8240    3.6780  -15.2130 C   0  0  0  0  0  0  0  0  0  0  0  0
  -10.7200    4.6410  -15.7320 N   0  0  0  0  0  0  0  0  0  0  0  0
  -12.0240    4.8160  -15.0950 C   0  0  0  0  0  0  0  0  0  0  0  0
  -10.3850    5.6100  -16.7260 C   0  0  0  0  0  0  0  0  0  0  0  0
   -9.8970    6.9110  -16.3340 C   0  0  0  0  0  0  0  0  0  0  0  0
   -9.5370    7.9470  -17.2250 C   0  0  0  0  0  0  0  0  0  0  0  0
   -9.7070    7.5560  -18.5470 C   0  0  0  0  0  0  0  0  0  0  0  0
   -9.4500    8.3230  -19.6580 C   0  0  0  0  0  0  0  0  0  0  0  0
   -8.9520    9.7080  -19.8360 C   0  0  0  0  0  0  0  0  0  0  0  0
   -9.7620    7.4950  -20.7110 N   0  0  0  0  0  0  0  0  0  0  0  0
   -9.6690    7.8120  -22.1180 C   0  0  0  0  0  0  0  0  0  0  0  0
  -10.2050    6.2740  -20.3510 N   0  0  0  0  0  0  0  0  0  0  0  0
  -10.1790    6.2760  -19.0090 C   0  0  0  0  0  0  0  0  0  0  0  0
  -10.5310    5.2670  -18.0980 C   0  0  0  0  0  0  0  0  0  0  0  0
   -8.9970    3.0450  -16.0720 N   0  0  0  0  0  0  0  0  0  0  0  0
   -5.0470    0.7600  -17.0640 C   0  0  0  0  0  0  0  0  0  0  0  0
   -4.0960   -0.2790  -17.0670 C   0  0  0  0  0  0  0  0  0  0  0  0
   -2.4690    0.1120  -17.6870 S   0  0  0  0  0  0  0  0  0  0  0  0
   -2.6800    1.7100  -18.1840 N   0  0  0  0  0  0  0  0  0  0  0  0
   -2.2160   -0.6490  -18.8890 O   0  0  0  0  0  0  0  0  0  0  0  0
   -1.5310    0.1300  -16.5900 O   0  0  0  0  0  0  0  0  0  0  0  0
   -3.2598   -2.9752  -15.5074 H   0  0  0  0  0  0  0  0  0  0  0  0
   -3.9213   -3.5845  -17.0623 H   0  0  0  0  0  0  0  0  0  0  0  0
   -2.5388   -2.4376  -17.0623 H   0  0  0  0  0  0  0  0  0  0  0  0
   -6.0229   -2.7496  -15.7358 H   0  0  0  0  0  0  0  0  0  0  0  0
   -7.6900   -0.9169  -15.7591 H   0  0  0  0  0  0  0  0  0  0  0  0
   -7.6930    1.8350  -17.5050 H   0  0  0  0  0  0  0  0  0  0  0  0
   -8.7643    2.1827  -12.4095 H   0  0  0  0  0  0  0  0  0  0  0  0
  -10.4096    3.8750  -13.1333 H   0  0  0  0  0  0  0  0  0  0  0  0
  -11.9032    4.7998  -14.0018 H   0  0  0  0  0  0  0  0  0  0  0  0
  -12.4556    5.7801  -15.4019 H   0  0  0  0  0  0  0  0  0  0  0  0
  -12.6945    3.9998  -15.4019 H   0  0  0  0  0  0  0  0  0  0  0  0
   -9.7976    7.1115  -15.2570 H   0  0  0  0  0  0  0  0  0  0  0  0
   -9.1696    8.9355  -16.9121 H   0  0  0  0  0  0  0  0  0  0  0  0
   -8.7867   10.1677  -18.8504 H   0  0  0  0  0  0  0  0  0  0  0  0
   -8.0047    9.6881  -20.3948 H   0  0  0  0  0  0  0  0  0  0  0  0
   -9.6951   10.2959  -20.3948 H   0  0  0  0  0  0  0  0  0  0  0  0
   -9.3612    8.8612  -22.2379 H   0  0  0  0  0  0  0  0  0  0  0  0
   -8.9257    7.1552  -22.5935 H   0  0  0  0  0  0  0  0  0  0  0  0
  -10.6493    7.6609  -22.5935 H   0  0  0  0  0  0  0  0  0  0  0  0
  -10.8941    4.2808  -18.4230 H   0  0  0  0  0  0  0  0  0  0  0  0
   -4.7602    1.7527  -17.4413 H   0  0  0  0  0  0  0  0  0  0  0  0
   -1.8770    2.0770  -18.6930 H   0  0  0  0  0  0  0  0  0  0  0  0
   -2.9340    2.2810  -17.3780 H   0  0  0  0  0  0  0  0  0  0  0  0
  1  2  1  0
  2  3  1  0
  3  4  2  0
  4  5  1  0
  5  6  1  0
  6  7  1  0
  7  8  2  0
  8  9  1  0
  9 10  2  0
 10 11  1  0
 11 12  1  0
 12 13  1  0
 12 14  1  0
 14 15  1  0
 15 16  2  0
 16 17  1  0
 17 18  2  0
 18 19  1  0
 18 20  1  0
 20 21  1  0
 20 22  1  0
 22 23  2  0
 23 24  1  0
 11 25  2  0
  5 26  2  0
 26 27  1  0
 27 28  1  0
 28 29  1  0
 28 30  2  0
 28 31  2  0
 27  2  2  0
 25  7  1  0
 24 14  2  0
 23 17  1  0
  1 32  1  0
  1 33  1  0
  1 34  1  0
  3 35  1  0
  4 36  1  0
  6 37  1  0
  9 38  1  0
 10 39  1  0
 13 40  1  0
 13 41  1  0
 13 42  1  0
 15 43  1  0
 16 44  1  0
 19 45  1  0
 19 46  1  0
 19 47  1  0
 21 48  1  0
 21 49  1  0
 21 50  1  0
 24 51  1  0
 26 52  1  0
 29 53  1  0
 29 54  1  0
M  END
>  <meeko>  (6) 
{"is_sidechain": false}

>  <vina_affinity_kcal_mol>  (6) 
-9.167

>  <pose_rank>  (6) 
6

$$$$

     RDKit          3D

 54 57  0  0  0  0  0  0  0  0999 V2000
  -11.7540    1.0440  -11.5780 C   0  0  0  0  0  0  0  0  0  0  0  0
  -11.4340    1.8640  -12.7960 C   0  0  0  0  0  0  0  0  0  0  0  0
  -12.0480    3.1150  -12.9330 C   0  0  0  0  0  0  0  0  0  0  0  0
  -11.7860    3.9310  -14.0380 C   0  0  0  0  0  0  0  0  0  0  0  0
  -10.8900    3.5390  -15.0420 C   0  0  0  0  0  0  0  0  0  0  0  0
  -10.7050    4.3880  -16.1360 N   0  0  0  0  0  0  0  0  0  0  0  0
   -9.6420    4.6390  -16.9990 C   0  0  0  0  0  0  0  0  0  0  0  0
   -9.7880    5.3550  -18.1150 N   0  0  0  0  0  0  0  0  0  0  0  0
   -8.6940    5.5180  -18.8710 C   0  0  0  0  0  0  0  0  0  0  0  0
   -7.4620    5.0020  -18.5480 C   0  0  0  0  0  0  0  0  0  0  0  0
   -7.3690    4.2750  -17.3760 C   0  0  0  0  0  0  0  0  0  0  0  0
   -6.1540    3.7070  -16.9290 N   0  0  0  0  0  0  0  0  0  0  0  0
   -4.9940    4.5750  -16.7290 C   0  0  0  0  0  0  0  0  0  0  0  0
   -6.0070    2.3650  -16.4640 C   0  0  0  0  0  0  0  0  0  0  0  0
   -6.0640    1.2650  -17.3980 C   0  0  0  0  0  0  0  0  0  0  0  0
   -5.9330   -0.1000  -17.0560 C   0  0  0  0  0  0  0  0  0  0  0  0
   -5.7340   -0.2600  -15.6910 C   0  0  0  0  0  0  0  0  0  0  0  0
   -5.5700   -1.4540  -15.0300 C   0  0  0  0  0  0  0  0  0  0  0  0
   -5.5510   -2.8650  -15.4850 C   0  0  0  0  0  0  0  0  0  0  0  0
   -5.3990   -1.0850  -13.7170 N   0  0  0  0  0  0  0  0  0  0  0  0
   -5.1840   -1.9660  -12.5920 C   0  0  0  0  0  0  0  0  0  0  0  0
   -5.4550    0.2440  -13.4970 N   0  0  0  0  0  0  0  0  0  0  0  0
   -5.6580    0.7890  -14.7070 C   0  0  0  0  0  0  0  0  0  0  0  0
   -5.7940    2.1360  -15.0770 C   0  0  0  0  0  0  0  0  0  0  0  0
   -8.4710    4.1130  -16.6130 N   0  0  0  0  0  0  0  0  0  0  0  0
  -10.2730    2.2950  -14.9050 C   0  0  0  0  0  0  0  0  0  0  0  0
  -10.5330    1.4640  -13.7980 C   0  0  0  0  0  0  0  0  0  0  0  0
   -9.6730   -0.0990  -13.7370 S   0  0  0  0  0  0  0  0  0  0  0  0
   -8.4780    0.2260  -12.5930 N   0  0  0  0  0  0  0  0  0  0  0  0
   -8.9810   -0.3170  -14.9860 O   0  0  0  0  0  0  0  0  0  0  0  0
  -10.5430   -1.1010  -13.1690 O   0  0  0  0  0  0  0  0  0  0  0  0
  -11.5265    1.6270  -10.6734 H   0  0  0  0  0  0  0  0  0  0  0  0
  -12.8216    0.7789  -11.5845 H   0  0  0  0  0  0  0  0  0  0  0  0
  -11.1482    0.1259  -11.5845 H   0  0  0  0  0  0  0  0  0  0  0  0
  -12.7481    3.4616  -12.1585 H   0  0  0  0  0  0  0  0  0  0  0  0
  -12.2947    4.9027  -14.1212 H   0  0  0  0  0  0  0  0  0  0  0  0
  -11.4250    5.0740  -16.3210 H   0  0  0  0  0  0  0  0  0  0  0  0
   -8.7871    6.0969  -19.8017 H   0  0  0  0  0  0  0  0  0  0  0  0
   -6.5866    5.1608  -19.1949 H   0  0  0  0  0  0  0  0  0  0  0  0
   -4.8167    4.7076  -15.6515 H   0  0  0  0  0  0  0  0  0  0  0  0
   -4.1083    4.1160  -17.1925 H   0  0  0  0  0  0  0  0  0  0  0  0
   -5.1845    5.5542  -17.1925 H   0  0  0  0  0  0  0  0  0  0  0  0
   -6.2218    1.5087  -18.4590 H   0  0  0  0  0  0  0  0  0  0  0  0
   -5.9823   -0.9286  -17.7778 H   0  0  0  0  0  0  0  0  0  0  0  0
   -5.5420   -3.5322  -14.6105 H   0  0  0  0  0  0  0  0  0  0  0  0
   -6.4465   -3.0669  -16.0910 H   0  0  0  0  0  0  0  0  0  0  0  0
   -4.6504   -3.0427  -16.0910 H   0  0  0  0  0  0  0  0  0  0  0  0
   -5.3209   -1.4051  -11.6557 H   0  0  0  0  0  0  0  0  0  0  0  0
   -5.9063   -2.7947  -12.6320 H   0  0  0  0  0  0  0  0  0  0  0  0
   -4.1612   -2.3688  -12.6320 H   0  0  0  0  0  0  0  0  0  0  0  0
   -5.7397    2.9562  -14.3460 H   0  0  0  0  0  0  0  0  0  0  0  0
   -9.5682    1.9559  -15.6785 H   0  0  0  0  0  0  0  0  0  0  0  0
   -7.8290   -0.5490  -12.4660 H   0  0  0  0  0  0  0  0  0  0  0  0
   -8.9190    0.5210  -11.7210 H   0  0  0  0  0  0  0  0  0  0  0  0
  1  2  1  0
  2  3  1  0
  3  4  2  0
  4  5  1  0
  5  6  1  0
  6  7  1  0
  7  8  2  0
  8  9  1  0
  9 10  2  0
 10 11  1  0
 11 12  1  0
 12 13  1  0
 12 14  1  0
 14 15  1  0
 15 16  2  0
 16 17  1  0
 17 18  2  0
 18 19  1  0
 18 20  1  0
 20 21  1  0
 20 22  1  0
 22 23  2  0
 23 24  1  0
 11 25  2  0
  5 26  2  0
 26 27  1  0
 27 28  1  0
 28 29  1  0
 28 30  2  0
 28 31  2  0
 27  2  2  0
 25  7  1  0
 24 14  2  0
 23 17  1  0
  1 32  1  0
  1 33  1  0
  1 34  1  0
  3 35  1  0
  4 36  1  0
  6 37  1  0
  9 38  1  0
 10 39  1  0
 13 40  1  0
 13 41  1  0
 13 42  1  0
 15 43  1  0
 16 44  1  0
 19 45  1  0
 19 46  1  0
 19 47  1  0
 21 48  1  0
 21 49  1  0
 21 50  1  0
 24 51  1  0
 26 52  1  0
 29 53  1  0
 29 54  1  0
M  END
>  <meeko>  (7) 
{"is_sidechain": false}

>  <vina_affinity_kcal_mol>  (7) 
-9.052

>  <pose_rank>  (7) 
7

$$$$

     RDKit          3D

 54 57  0  0  0  0  0  0  0  0999 V2000
   -4.8660    1.8950  -15.9650 C   0  0  0  0  0  0  0  0  0  0  0  0
   -6.0310    1.4540  -15.1230 C   0  0  0  0  0  0  0  0  0  0  0  0
   -6.6600    2.4080  -14.3130 C   0  0  0  0  0  0  0  0  0  0  0  0
   -7.7560    2.0640  -13.5130 C   0  0  0  0  0  0  0  0  0  0  0  0
   -8.2750    0.7630  -13.5020 C   0  0  0  0  0  0  0  0  0  0  0  0
   -9.3460    0.4830  -12.6490 N   0  0  0  0  0  0  0  0  0  0  0  0
  -10.5990    1.0570  -12.4480 C   0  0  0  0  0  0  0  0  0  0  0  0
  -11.4160    0.6540  -11.4740 N   0  0  0  0  0  0  0  0  0  0  0  0
  -12.6000    1.2740  -11.3860 C   0  0  0  0  0  0  0  0  0  0  0  0
  -12.9910    2.2870  -12.2290 C   0  0  0  0  0  0  0  0  0  0  0  0
  -12.1000    2.6690  -13.2140 C   0  0  0  0  0  0  0  0  0  0  0  0
  -12.3810    3.7080  -14.1310 N   0  0  0  0  0  0  0  0  0  0  0  0
  -13.5930    4.5070  -13.9510 C   0  0  0  0  0  0  0  0  0  0  0  0
  -11.4750    4.1810  -15.1270 C   0  0  0  0  0  0  0  0  0  0  0  0
  -10.3610    3.3600  -15.5400 C   0  0  0  0  0  0  0  0  0  0  0  0
   -9.4000    3.7210  -16.5120 C   0  0  0  0  0  0  0  0  0  0  0  0
   -9.6640    4.9790  -17.0370 C   0  0  0  0  0  0  0  0  0  0  0  0
   -8.9260    5.6260  -17.9990 C   0  0  0  0  0  0  0  0  0  0  0  0
   -7.7020    5.2590  -18.7510 C   0  0  0  0  0  0  0  0  0  0  0  0
   -9.5910    6.8170  -18.1810 N   0  0  0  0  0  0  0  0  0  0  0  0
   -9.2310    7.8780  -19.0930 C   0  0  0  0  0  0  0  0  0  0  0  0
  -10.6800    6.9740  -17.4020 N   0  0  0  0  0  0  0  0  0  0  0  0
  -10.7570    5.8450  -16.6790 C   0  0  0  0  0  0  0  0  0  0  0  0
  -11.6950    5.4600  -15.7080 C   0  0  0  0  0  0  0  0  0  0  0  0
  -10.9060    2.0460  -13.3000 N   0  0  0  0  0  0  0  0  0  0  0  0
   -7.6510   -0.1870  -14.3120 C   0  0  0  0  0  0  0  0  0  0  0  0
   -6.5470    0.1470  -15.1180 C   0  0  0  0  0  0  0  0  0  0  0  0
   -5.8460   -1.1580  -16.1150 S   0  0  0  0  0  0  0  0  0  0  0  0
   -6.1310   -0.5740  -17.6710 N   0  0  0  0  0  0  0  0  0  0  0  0
   -6.6500   -2.3500  -15.9820 O   0  0  0  0  0  0  0  0  0  0  0  0
   -4.4140   -1.1850  -15.9280 O   0  0  0  0  0  0  0  0  0  0  0  0
   -4.0387    2.2082  -15.3111 H   0  0  0  0  0  0  0  0  0  0  0  0
   -4.5355    1.0598  -16.5999 H   0  0  0  0  0  0  0  0  0  0  0  0
   -5.1714    2.7397  -16.5999 H   0  0  0  0  0  0  0  0  0  0  0  0
   -6.2872    3.4429  -14.3054 H   0  0  0  0  0  0  0  0  0  0  0  0
   -8.2204    2.8331  -12.8783 H   0  0  0  0  0  0  0  0  0  0  0  0
   -9.1970   -0.2030  -11.9210 H   0  0  0  0  0  0  0  0  0  0  0  0
  -13.2969    0.9555  -10.5968 H   0  0  0  0  0  0  0  0  0  0  0  0
  -13.9721    2.7733  -12.1240 H   0  0  0  0  0  0  0  0  0  0  0  0
  -13.7903    4.6370  -12.8767 H   0  0  0  0  0  0  0  0  0  0  0  0
  -13.4557    5.4923  -14.4205 H   0  0  0  0  0  0  0  0  0  0  0  0
  -14.4444    3.9925  -14.4205 H   0  0  0  0  0  0  0  0  0  0  0  0
  -10.2516    2.3761  -15.0604 H   0  0  0  0  0  0  0  0  0  0  0  0
   -8.5528    3.0873  -16.8133 H   0  0  0  0  0  0  0  0  0  0  0  0
   -6.8955    5.0172  -18.0432 H   0  0  0  0  0  0  0  0  0  0  0  0
   -7.9092    4.3835  -19.3839 H   0  0  0  0  0  0  0  0  0  0  0  0
   -7.3933    6.1041  -19.3839 H   0  0  0  0  0  0  0  0  0  0  0  0
   -8.9293    8.7673  -18.5202 H   0  0  0  0  0  0  0  0  0  0  0  0
   -8.3943    7.5487  -19.7266 H   0  0  0  0  0  0  0  0  0  0  0  0
  -10.0953    8.1259  -19.7266 H   0  0  0  0  0  0  0  0  0  0  0  0
  -12.5397    6.1019  -15.4174 H   0  0  0  0  0  0  0  0  0  0  0  0
   -8.0305   -1.2194  -14.3205 H   0  0  0  0  0  0  0  0  0  0  0  0
   -5.4210    0.0860  -17.9840 H   0  0  0  0  0  0  0  0  0  0  0  0
   -7.0770   -0.1930  -17.7180 H   0  0  0  0  0  0  0  0  0  0  0  0
  1  2  1  0
  2  3  1  0
  3  4  2  0
  4  5  1  0
  5  6  1  0
  6  7  1  0
  7  8  2  0
  8  9  1  0
  9 10  2  0
 10 11  1  0
 11 12  1  0
 12 13  1  0
 12 14  1  0
 14 15  1  0
 15 16  2  0
 16 17  1  0
 17 18  2  0
 18 19  1  0
 18 20  1  0
 20 21  1  0
 20 22  1  0
 22 23  2  0
 23 24  1  0
 11 25  2  0
  5 26  2  0
 26 27  1  0
 27 28  1  0
 28 29  1  0
 28 30  2  0
 28 31  2  0
 27  2  2  0
 25  7  1  0
 24 14  2  0
 23 17  1  0
  1 32  1  0
  1 33  1  0
  1 34  1  0
  3 35  1  0
  4 36  1  0
  6 37  1  0
  9 38  1  0
 10 39  1  0
 13 40  1  0
 13 41  1  0
 13 42  1  0
 15 43  1  0
 16 44  1  0
 19 45  1  0
 19 46  1  0
 19 47  1  0
 21 48  1  0
 21 49  1  0
 21 50  1  0
 24 51  1  0
 26 52  1  0
 29 53  1  0
 29 54  1  0
M  END
>  <meeko>  (8) 
{"is_sidechain": false}

>  <vina_affinity_kcal_mol>  (8) 
-9.0

>  <pose_rank>  (8) 
8

$$$$

     RDKit          3D

 54 57  0  0  0  0  0  0  0  0999 V2000
   -3.0670   -1.3220  -17.2320 C   0  0  0  0  0  0  0  0  0  0  0  0
   -4.4420   -0.7770  -16.9660 C   0  0  0  0  0  0  0  0  0  0  0  0
   -4.8760    0.3200  -17.7220 C   0  0  0  0  0  0  0  0  0  0  0  0
   -6.1490    0.8690  -17.5300 C   0  0  0  0  0  0  0  0  0  0  0  0
   -7.0420    0.3380  -16.5900 C   0  0  0  0  0  0  0  0  0  0  0  0
   -8.2810    0.9620  -16.4260 N   0  0  0  0  0  0  0  0  0  0  0  0
   -8.8090    1.8320  -15.4760 C   0  0  0  0  0  0  0  0  0  0  0  0
   -8.5200    1.7260  -14.1780 N   0  0  0  0  0  0  0  0  0  0  0  0
   -9.0970    2.6140  -13.3590 C   0  0  0  0  0  0  0  0  0  0  0  0
   -9.9430    3.6090  -13.7890 C   0  0  0  0  0  0  0  0  0  0  0  0
  -10.2000    3.6760  -15.1460 C   0  0  0  0  0  0  0  0  0  0  0  0
  -11.0400    4.6620  -15.7120 N   0  0  0  0  0  0  0  0  0  0  0  0
  -12.3640    4.8850  -15.1350 C   0  0  0  0  0  0  0  0  0  0  0  0
  -10.6310    5.6100  -16.6980 C   0  0  0  0  0  0  0  0  0  0  0  0
  -10.0780    6.8810  -16.2950 C   0  0  0  0  0  0  0  0  0  0  0  0
   -9.6430    7.8960  -17.1780 C   0  0  0  0  0  0  0  0  0  0  0  0
   -9.8070    7.5140  -18.5030 C   0  0  0  0  0  0  0  0  0  0  0  0
   -9.4840    8.2650  -19.6080 C   0  0  0  0  0  0  0  0  0  0  0  0
   -8.9060    9.6200  -19.7750 C   0  0  0  0  0  0  0  0  0  0  0  0
   -9.8210    7.4550  -20.6680 N   0  0  0  0  0  0  0  0  0  0  0  0
   -9.6820    7.7660  -22.0720 C   0  0  0  0  0  0  0  0  0  0  0  0
  -10.3390    6.2610  -20.3180 N   0  0  0  0  0  0  0  0  0  0  0  0
  -10.3410    6.2630  -18.9750 C   0  0  0  0  0  0  0  0  0  0  0  0
  -10.7680    5.2750  -18.0730 C   0  0  0  0  0  0  0  0  0  0  0  0
   -9.6160    2.7820  -15.9720 N   0  0  0  0  0  0  0  0  0  0  0  0
   -6.6130   -0.7580  -15.8400 C   0  0  0  0  0  0  0  0  0  0  0  0
   -5.3330   -1.3170  -16.0220 C   0  0  0  0  0  0  0  0  0  0  0  0
   -4.9090   -2.7210  -15.0070 S   0  0  0  0  0  0  0  0  0  0  0  0
   -6.3130   -2.9030  -14.0910 N   0  0  0  0  0  0  0  0  0  0  0  0
   -3.8710   -2.3450  -14.0750 O   0  0  0  0  0  0  0  0  0  0  0  0
   -4.7900   -3.8950  -15.8400 O   0  0  0  0  0  0  0  0  0  0  0  0
   -2.5609   -1.5226  -16.2762 H   0  0  0  0  0  0  0  0  0  0  0  0
   -3.1478   -2.2561  -17.8073 H   0  0  0  0  0  0  0  0  0  0  0  0
   -2.4859   -0.5862  -17.8073 H   0  0  0  0  0  0  0  0  0  0  0  0
   -4.2062    0.7562  -18.4777 H   0  0  0  0  0  0  0  0  0  0  0  0
   -6.4556    1.7377  -18.1312 H   0  0  0  0  0  0  0  0  0  0  0  0
   -9.0350    0.6710  -17.0350 H   0  0  0  0  0  0  0  0  0  0  0  0
   -8.8824    2.5438  -12.2824 H   0  0  0  0  0  0  0  0  0  0  0  0
  -10.3960    4.3212  -13.0836 H   0  0  0  0  0  0  0  0  0  0  0  0
  -12.2924    4.8729  -14.0374 H   0  0  0  0  0  0  0  0  0  0  0  0
  -12.7489    5.8606  -15.4666 H   0  0  0  0  0  0  0  0  0  0  0  0
  -13.0473    4.0893  -15.4666 H   0  0  0  0  0  0  0  0  0  0  0  0
   -9.9879    7.0752  -15.2160 H   0  0  0  0  0  0  0  0  0  0  0  0
   -9.2284    8.8630  -16.8570 H   0  0  0  0  0  0  0  0  0  0  0  0
   -8.7172   10.0626  -18.7858 H   0  0  0  0  0  0  0  0  0  0  0  0
   -7.9598    9.5490  -20.3315 H   0  0  0  0  0  0  0  0  0  0  0  0
   -9.6121   10.2538  -20.3315 H   0  0  0  0  0  0  0  0  0  0  0  0
   -9.2355    8.7651  -22.1838 H   0  0  0  0  0  0  0  0  0  0  0  0
   -9.0324    7.0184  -22.5506 H   0  0  0  0  0  0  0  0  0  0  0  0
  -10.6723    7.7513  -22.5506 H   0  0  0  0  0  0  0  0  0  0  0  0
  -11.1791    4.3107  -18.4064 H   0  0  0  0  0  0  0  0  0  0  0  0
   -7.2892   -1.1948  -15.0904 H   0  0  0  0  0  0  0  0  0  0  0  0
   -6.4140   -3.8400  -13.7020 H   0  0  0  0  0  0  0  0  0  0  0  0
   -7.1170   -2.6170  -14.6500 H   0  0  0  0  0  0  0  0  0  0  0  0
  1  2  1  0
  2  3  1  0
  3  4  2  0
  4  5  1  0
  5  6  1  0
  6  7  1  0
  7  8  2  0
  8  9  1  0
  9 10  2  0
 10 11  1  0
 11 12  1  0
 12 13  1  0
 12 14  1  0
 14 15  1  0
 15 16  2  0
 16 17  1  0
 17 18  2  0
 18 19  1  0
 18 20  1  0
 20 21  1  0
 20 22  1  0
 22 23  2  0
 23 24  1  0
 11 25  2  0
  5 26  2  0
 26 27  1  0
 27 28  1  0
 28 29  1  0
 28 30  2  0
 28 31  2  0
 27  2  2  0
 25  7  1  0
 24 14  2  0
 23 17  1  0
  1 32  1  0
  1 33  1  0
  1 34  1  0
  3 35  1  0
  4 36  1  0
  6 37  1  0
  9 38  1  0
 10 39  1  0
 13 40  1  0
 13 41  1  0
 13 42  1  0
 15 43  1  0
 16 44  1  0
 19 45  1  0
 19 46  1  0
 19 47  1  0
 21 48  1  0
 21 49  1  0
 21 50  1  0
 24 51  1  0
 26 52  1  0
 29 53  1  0
 29 54  1  0
M  END
>  <meeko>  (9) 
{"is_sidechain": false}

>  <vina_affinity_kcal_mol>  (9) 
-8.99

>  <pose_rank>  (9) 
9

$$$$

     RDKit          3D

 54 57  0  0  0  0  0  0  0  0999 V2000
   -8.2840   -2.5110   -9.6290 C   0  0  0  0  0  0  0  0  0  0  0  0
   -7.6450   -1.7900  -10.7830 C   0  0  0  0  0  0  0  0  0  0  0  0
   -6.2520   -1.6450  -10.7830 C   0  0  0  0  0  0  0  0  0  0  0  0
   -5.5950   -0.9920  -11.8320 C   0  0  0  0  0  0  0  0  0  0  0  0
   -6.2980   -0.4740  -12.9270 C   0  0  0  0  0  0  0  0  0  0  0  0
   -5.5800    0.1990  -13.9190 N   0  0  0  0  0  0  0  0  0  0  0  0
   -5.8840    0.6410  -15.2040 C   0  0  0  0  0  0  0  0  0  0  0  0
   -5.4570    0.0010  -16.2940 N   0  0  0  0  0  0  0  0  0  0  0  0
   -5.8040    0.5290  -17.4750 C   0  0  0  0  0  0  0  0  0  0  0  0
   -6.5700    1.6630  -17.6060 C   0  0  0  0  0  0  0  0  0  0  0  0
   -6.9920    2.2780  -16.4430 C   0  0  0  0  0  0  0  0  0  0  0  0
   -7.7960    3.4410  -16.4460 N   0  0  0  0  0  0  0  0  0  0  0  0
   -7.4430    4.5470  -17.3350 C   0  0  0  0  0  0  0  0  0  0  0  0
   -9.0560    3.5600  -15.7860 C   0  0  0  0  0  0  0  0  0  0  0  0
   -9.9750    4.6090  -16.1630 C   0  0  0  0  0  0  0  0  0  0  0  0
  -11.2440    4.8260  -15.5810 C   0  0  0  0  0  0  0  0  0  0  0  0
  -11.5100    3.8910  -14.5900 C   0  0  0  0  0  0  0  0  0  0  0  0
  -12.6520    3.8200  -13.8290 C   0  0  0  0  0  0  0  0  0  0  0  0
  -13.8920    4.6330  -13.7890 C   0  0  0  0  0  0  0  0  0  0  0  0
  -12.4390    2.7340  -13.0120 N   0  0  0  0  0  0  0  0  0  0  0  0
  -13.3410    2.2150  -12.0090 C   0  0  0  0  0  0  0  0  0  0  0  0
  -11.2490    2.1250  -13.1900 N   0  0  0  0  0  0  0  0  0  0  0  0
  -10.6470    2.8180  -14.1690 C   0  0  0  0  0  0  0  0  0  0  0  0
   -9.3890    2.6280  -14.7650 C   0  0  0  0  0  0  0  0  0  0  0  0
   -6.6430    1.7450  -15.2520 N   0  0  0  0  0  0  0  0  0  0  0  0
   -7.6860   -0.6220  -12.9310 C   0  0  0  0  0  0  0  0  0  0  0  0
   -8.3580   -1.2740  -11.8790 C   0  0  0  0  0  0  0  0  0  0  0  0
  -10.1330   -1.4060  -12.0080 S   0  0  0  0  0  0  0  0  0  0  0  0
  -10.4010   -0.7630  -13.5440 N   0  0  0  0  0  0  0  0  0  0  0  0
  -10.7520   -0.4890  -11.0790 O   0  0  0  0  0  0  0  0  0  0  0  0
  -10.5070   -2.8000  -12.0600 O   0  0  0  0  0  0  0  0  0  0  0  0
   -7.9118   -2.0911   -8.6829 H   0  0  0  0  0  0  0  0  0  0  0  0
   -9.3760   -2.3891   -9.6798 H   0  0  0  0  0  0  0  0  0  0  0  0
   -8.0317   -3.5805   -9.6798 H   0  0  0  0  0  0  0  0  0  0  0  0
   -5.6653   -2.0506   -9.9456 H   0  0  0  0  0  0  0  0  0  0  0  0
   -4.5010   -0.8830  -11.7957 H   0  0  0  0  0  0  0  0  0  0  0  0
   -4.5860    0.3200  -13.7750 H   0  0  0  0  0  0  0  0  0  0  0  0
   -5.4569    0.0276  -18.3905 H   0  0  0  0  0  0  0  0  0  0  0  0
   -6.8358    2.0639  -18.5953 H   0  0  0  0  0  0  0  0  0  0  0  0
   -7.1628    5.4250  -16.7345 H   0  0  0  0  0  0  0  0  0  0  0  0
   -6.5947    4.2509  -17.9696 H   0  0  0  0  0  0  0  0  0  0  0  0
   -8.3060    4.7971  -17.9696 H   0  0  0  0  0  0  0  0  0  0  0  0
   -9.6622    5.2924  -16.9662 H   0  0  0  0  0  0  0  0  0  0  0  0
  -11.9324    5.6319  -15.8752 H   0  0  0  0  0  0  0  0  0  0  0  0
  -14.1751    4.8186  -12.7424 H   0  0  0  0  0  0  0  0  0  0  0  0
  -13.7178    5.5927  -14.2975 H   0  0  0  0  0  0  0  0  0  0  0  0
  -14.7027    4.0905  -14.2975 H   0  0  0  0  0  0  0  0  0  0  0  0
  -12.9460    2.4423  -11.0078 H   0  0  0  0  0  0  0  0  0  0  0  0
  -14.3297    2.6823  -12.1279 H   0  0  0  0  0  0  0  0  0  0  0  0
  -13.4338    1.1254  -12.1279 H   0  0  0  0  0  0  0  0  0  0  0  0
   -8.7104    1.8165  -14.4635 H   0  0  0  0  0  0  0  0  0  0  0  0
   -8.2675   -0.2207  -13.7741 H   0  0  0  0  0  0  0  0  0  0  0  0
   -9.9410   -1.2940  -14.2820 H   0  0  0  0  0  0  0  0  0  0  0  0
  -10.1430    0.2240  -13.5450 H   0  0  0  0  0  0  0  0  0  0  0  0
  1  2  1  0
  2  3  1  0
  3  4  2  0
  4  5  1  0
  5  6  1  0
  6  7  1  0
  7  8  2  0
  8  9  1  0
  9 10  2  0
 10 11  1  0
 11 12  1  0
 12 13  1  0
 12 14  1  0
 14 15  1  0
 15 16  2  0
 16 17  1  0
 17 18  2  0
 18 19  1  0
 18 20  1  0
 20 21  1  0
 20 22  1  0
 22 23  2  0
 23 24  1  0
 11 25  2  0
  5 26  2  0
 26 27  1  0
 27 28  1  0
 28 29  1  0
 28 30  2  0
 28 31  2  0
 27  2  2  0
 25  7  1  0
 24 14  2  0
 23 17  1  0
  1 32  1  0
  1 33  1  0
  1 34  1  0
  3 35  1  0
  4 36  1  0
  6 37  1  0
  9 38  1  0
 10 39  1  0
 13 40  1  0
 13 41  1  0
 13 42  1  0
 15 43  1  0
 16 44  1  0
 19 45  1  0
 19 46  1  0
 19 47  1  0
 21 48  1  0
 21 49  1  0
 21 50  1  0
 24 51  1  0
 26 52  1  0
 29 53  1  0
 29 54  1  0
M  END
>  <meeko>  (10) 
{"is_sidechain": false}

>  <vina_affinity_kcal_mol>  (10) 
-8.915

>  <pose_rank>  (10) 
10

$$$$
