
     RDKit          3D

 54 57  0  0  0  0  0  0  0  0999 V2000
   -4.4091   -3.2848   -1.9301 C   0  0  0  0  0  0  0  0  0  0  0  0
   -3.4049   -2.2036   -2.3026 C   0  0  0  0  0  0  0  0  0  0  0  0
   -2.8914   -1.5007   -1.1279 N   0  0  0  0  0  0  0  0  0  0  0  0
   -1.7317   -2.0096   -0.5375 C   0  0  0  0  0  0  0  0  0  0  0  0
   -1.1297   -2.9930   -0.9707 O   0  0  0  0  0  0  0  0  0  0  0  0
   -1.2078   -1.3030    0.6779 C   0  0  0  0  0  0  0  0  0  0  0  0
    0.0156   -1.7876    1.3447 C   0  0  0  0  0  0  0  0  0  0  0  0
    1.2213   -1.0976    1.1065 C   0  0  0  0  0  0  0  0  0  0  0  0
    2.4126   -1.5153    1.7022 C   0  0  0  0  0  0  0  0  0  0  0  0
    3.6610   -0.8836    1.5122 N   0  0  0  0  0  0  0  0  0  0  0  0
    3.8958    0.3578    0.9424 C   0  0  0  0  0  0  0  0  0  0  0  0
    3.0177    1.1420    0.6085 O   0  0  0  0  0  0  0  0  0  0  0  0
    5.2589    0.5742    0.8156 N   0  0  0  0  0  0  0  0  0  0  0  0
    5.9079    1.7469    0.3763 C   0  0  0  0  0  0  0  0  0  0  0  0
    5.2572    2.9604    0.1468 C   0  0  0  0  0  0  0  0  0  0  0  0
    5.9770    4.0817   -0.2791 C   0  0  0  0  0  0  0  0  0  0  0  0
    7.3534    4.0002   -0.4749 C   0  0  0  0  0  0  0  0  0  0  0  0
    8.0134    2.7970   -0.2427 C   0  0  0  0  0  0  0  0  0  0  0  0
    7.2942    1.6768    0.1827 C   0  0  0  0  0  0  0  0  0  0  0  0
    2.3879   -2.6466    2.5252 C   0  0  0  0  0  0  0  0  0  0  0  0
    3.5275   -3.0701    3.0959 F   0  0  0  0  0  0  0  0  0  0  0  0
    1.2110   -3.3401    2.7816 C   0  0  0  0  0  0  0  0  0  0  0  0
    0.0217   -2.9074    2.1953 C   0  0  0  0  0  0  0  0  0  0  0  0
   -1.5621   -3.8724    2.6143 Br  0  0  0  0  0  0  0  0  0  0  0  0
   -1.8434   -0.2332    1.1774 C   0  0  0  0  0  0  0  0  0  0  0  0
   -3.0671    0.2503    0.5550 C   0  0  0  0  0  0  0  0  0  0  0  0
   -3.7576    1.3379    1.0746 C   0  0  0  0  0  0  0  0  0  0  0  0
   -4.9034    1.8308    0.5551 N   0  0  0  0  0  0  0  0  0  0  0  0
   -5.3960    1.2231   -0.5357 C   0  0  0  0  0  0  0  0  0  0  0  0
   -6.5910    1.7520   -1.0272 N   0  0  0  0  0  0  0  0  0  0  0  0
   -6.5120    2.2169   -2.4025 C   0  0  0  0  0  0  0  0  0  0  0  0
   -4.7796    0.1192   -1.1180 C   0  0  0  0  0  0  0  0  0  0  0  0
   -3.5892   -0.3785   -0.5765 C   0  0  0  0  0  0  0  0  0  0  0  0
   -5.2808   -2.8640   -1.4197 H   0  0  0  0  0  0  0  0  0  0  0  0
   -4.7578   -3.8038   -2.8282 H   0  0  0  0  0  0  0  0  0  0  0  0
   -3.9580   -4.0254   -1.2613 H   0  0  0  0  0  0  0  0  0  0  0  0
   -2.5696   -2.6764   -2.8333 H   0  0  0  0  0  0  0  0  0  0  0  0
   -3.8301   -1.4931   -3.0185 H   0  0  0  0  0  0  0  0  0  0  0  0
    1.2083   -0.2455    0.4311 H   0  0  0  0  0  0  0  0  0  0  0  0
    4.4325   -1.3065    2.0118 H   0  0  0  0  0  0  0  0  0  0  0  0
    5.8447   -0.2399    0.9201 H   0  0  0  0  0  0  0  0  0  0  0  0
    4.1877    3.0715    0.2951 H   0  0  0  0  0  0  0  0  0  0  0  0
    5.4561    5.0194   -0.4561 H   0  0  0  0  0  0  0  0  0  0  0  0
    7.9088    4.8736   -0.8064 H   0  0  0  0  0  0  0  0  0  0  0  0
    9.0877    2.7292   -0.3928 H   0  0  0  0  0  0  0  0  0  0  0  0
    7.8353    0.7507    0.3565 H   0  0  0  0  0  0  0  0  0  0  0  0
    1.2382   -4.2062    3.4351 H   0  0  0  0  0  0  0  0  0  0  0  0
   -1.4750    0.2865    2.0568 H   0  0  0  0  0  0  0  0  0  0  0  0
   -3.4033    1.8654    1.9564 H   0  0  0  0  0  0  0  0  0  0  0  0
   -6.7926    2.5247   -0.3911 H   0  0  0  0  0  0  0  0  0  0  0  0
   -5.6867    2.9242   -2.5415 H   0  0  0  0  0  0  0  0  0  0  0  0
   -7.4422    2.7348   -2.6572 H   0  0  0  0  0  0  0  0  0  0  0  0
   -6.3994    1.3854   -3.1056 H   0  0  0  0  0  0  0  0  0  0  0  0
   -5.2622   -0.3445   -1.9676 H   0  0  0  0  0  0  0  0  0  0  0  0
  1  2  1  0
  2  3  1  0
  3  4  1  0
  4  5  2  0
  4  6  1  0
  6  7  1  0
  7  8  1  0
  8  9  2  0
  9 10  1  0
 10 11  1  0
 11 12  2  0
 11 13  1  0
 13 14  1  0
 14 15  2  0
 15 16  1  0
 16 17  2  0
 17 18  1  0
 18 19  2  0
  9 20  1  0
 20 21  1  0
 20 22  2  0
 22 23  1  0
 23 24  1  0
  6 25  2  0
 25 26  1  0
 26 27  1  0
 27 28  2  0
 28 29  1  0
 29 30  1  0
 30 31  1  0
 29 32  2  0
 32 33  1  0
 33  3  1  0
 23  7  2  0
 33 26  2  0
 19 14  1  0
  1 34  1  0
  1 35  1  0
  1 36  1  0
  2 37  1  0
  2 38  1  0
  8 39  1  0
 10 40  1  0
 13 41  1  0
 15 42  1  0
 16 43  1  0
 17 44  1  0
 18 45  1  0
 19 46  1  0
 22 47  1  0
 25 48  1  0
 27 49  1  0
 30 50  1  0
 31 51  1  0
 31 52  1  0
 31 53  1  0
 32 54  1  0
M  END
$$$$
