
     RDKit          3D

 54 57  0  0  0  0  0  0  0  0999 V2000
  -39.8430  160.3560   -5.7910 C   0  0  0  0  0  0  0  0  0  0  0  0
  -38.5750  160.3230   -4.9490 C   0  0  0  0  0  0  0  0  0  0  0  0
  -38.7620  160.9620   -3.6470 N   0  0  0  0  0  0  0  0  0  0  0  0
  -39.0810  160.1320   -2.5690 C   0  0  0  0  0  0  0  0  0  0  0  0
  -39.1880  158.9090   -2.6690 O   0  0  0  0  0  0  0  0  0  0  0  0
  -39.2890  160.7830   -1.2340 C   0  0  0  0  0  0  0  0  0  0  0  0
  -39.6220  159.9600   -0.0550 C   0  0  0  0  0  0  0  0  0  0  0  0
  -38.6020  159.1750    0.5180 C   0  0  0  0  0  0  0  0  0  0  0  0
  -38.8590  158.3700    1.6300 C   0  0  0  0  0  0  0  0  0  0  0  0
  -37.8970  157.5520    2.2590 N   0  0  0  0  0  0  0  0  0  0  0  0
  -37.2970  157.7580    3.4930 C   0  0  0  0  0  0  0  0  0  0  0  0
  -37.6060  158.6520    4.2700 O   0  0  0  0  0  0  0  0  0  0  0  0
  -36.3130  156.8070    3.7090 N   0  0  0  0  0  0  0  0  0  0  0  0
  -35.5440  156.6130    4.8760 C   0  0  0  0  0  0  0  0  0  0  0  0
  -34.3360  157.2620    5.1310 C   0  0  0  0  0  0  0  0  0  0  0  0
  -33.6390  157.0220    6.3200 C   0  0  0  0  0  0  0  0  0  0  0  0
  -34.1470  156.1340    7.2650 C   0  0  0  0  0  0  0  0  0  0  0  0
  -35.3550  155.4870    7.0230 C   0  0  0  0  0  0  0  0  0  0  0  0
  -36.0510  155.7270    5.8360 C   0  0  0  0  0  0  0  0  0  0  0  0
  -40.1590  158.3430    2.1490 C   0  0  0  0  0  0  0  0  0  0  0  0
  -40.4270  157.5640    3.2090 F   0  0  0  0  0  0  0  0  0  0  0  0
  -41.1800  159.1140    1.6060 C   0  0  0  0  0  0  0  0  0  0  0  0
  -40.9110  159.9270    0.5060 C   0  0  0  0  0  0  0  0  0  0  0  0
  -42.3380  160.9870   -0.1690 Br  0  0  0  0  0  0  0  0  0  0  0  0
  -39.1840  162.1120   -1.0940 C   0  0  0  0  0  0  0  0  0  0  0  0
  -38.8830  162.9500   -2.2450 C   0  0  0  0  0  0  0  0  0  0  0  0
  -38.8010  164.3320   -2.1280 C   0  0  0  0  0  0  0  0  0  0  0  0
  -38.5360  165.1680   -3.1560 N   0  0  0  0  0  0  0  0  0  0  0  0
  -38.3400  164.6160   -4.3640 C   0  0  0  0  0  0  0  0  0  0  0  0
  -38.0910  165.5180   -5.4000 N   0  0  0  0  0  0  0  0  0  0  0  0
  -38.2430  164.9500   -6.7290 C   0  0  0  0  0  0  0  0  0  0  0  0
  -38.4160  163.2430   -4.5790 C   0  0  0  0  0  0  0  0  0  0  0  0
  -38.6830  162.3850   -3.5060 C   0  0  0  0  0  0  0  0  0  0  0  0
  -40.7218  160.3789   -5.1297 H   0  0  0  0  0  0  0  0  0  0  0  0
  -39.8383  161.2543   -6.4258 H   0  0  0  0  0  0  0  0  0  0  0  0
  -39.8851  159.4586   -6.4258 H   0  0  0  0  0  0  0  0  0  0  0  0
  -38.2816  159.2747   -4.7907 H   0  0  0  0  0  0  0  0  0  0  0  0
  -37.7948  160.8787   -5.4899 H   0  0  0  0  0  0  0  0  0  0  0  0
  -37.5913  159.1964    0.0844 H   0  0  0  0  0  0  0  0  0  0  0  0
  -37.7800  156.6360    1.8460 H   0  0  0  0  0  0  0  0  0  0  0  0
  -36.0200  156.2850    2.8980 H   0  0  0  0  0  0  0  0  0  0  0  0
  -33.9285  157.9675    4.3920 H   0  0  0  0  0  0  0  0  0  0  0  0
  -32.6856  157.5369    6.5093 H   0  0  0  0  0  0  0  0  0  0  0  0
  -33.5960  155.9450    8.1981 H   0  0  0  0  0  0  0  0  0  0  0  0
  -35.7620  154.7862    7.7668 H   0  0  0  0  0  0  0  0  0  0  0  0
  -37.0072  155.2151    5.6528 H   0  0  0  0  0  0  0  0  0  0  0  0
  -42.1903  159.0830    2.0399 H   0  0  0  0  0  0  0  0  0  0  0  0
  -39.3260  162.5712   -0.1046 H   0  0  0  0  0  0  0  0  0  0  0  0
  -38.9623  164.7744   -1.1339 H   0  0  0  0  0  0  0  0  0  0  0  0
  -37.1270  165.8130   -5.2370 H   0  0  0  0  0  0  0  0  0  0  0  0
  -38.5265  163.8905   -6.6447 H   0  0  0  0  0  0  0  0  0  0  0  0
  -39.0264  165.4969   -7.2741 H   0  0  0  0  0  0  0  0  0  0  0  0
  -37.2911  165.0326   -7.2741 H   0  0  0  0  0  0  0  0  0  0  0  0
  -38.2667  162.8335   -5.5890 H   0  0  0  0  0  0  0  0  0  0  0  0
  1  2  1  0
  2  3  1  0
  3  4  1  0
  4  5  2  0
  4  6  1  0
  6  7  1  0
  7  8  1  0
  8  9  2  0
  9 10  1  0
 10 11  1  0
 11 12  2  0
 11 13  1  0
 13 14  1  0
 14 15  2  0
 15 16  1  0
 16 17  2  0
 17 18  1  0
 18 19  2  0
  9 20  1  0
 20 21  1  0
 20 22  2  0
 22 23  1  0
 23 24  1  0
  6 25  2  0
 25 26  1  0
 26 27  2  0
 27 28  1  0
 28 29  2  0
 29 30  1  0
 30 31  1  0
 29 32  1  0
 32 33  2  0
 33  3  1  0
 23  7  2  0
 33 26  1  0
 19 14  1  0
  1 34  1  0
  1 35  1  0
  1 36  1  0
  2 37  1  0
  2 38  1  0
  8 39  1  0
 10 40  1  0
 13 41  1  0
 15 42  1  0
 16 43  1  0
 17 44  1  0
 18 45  1  0
 19 46  1  0
 22 47  1  0
 25 48  1  0
 27 49  1  0
 30 50  1  0
 31 51  1  0
 31 52  1  0
 31 53  1  0
 32 54  1  0
M  END
>  <meeko>  (1) 
{"is_sidechain": false}

>  <vina_affinity_kcal_mol>  (1) 
-10.209

>  <pose_rank>  (1) 
1

$$$$

     RDKit          3D

 54 57  0  0  0  0  0  0  0  0999 V2000
  -39.0710  165.1890   -3.2170 C   0  0  0  0  0  0  0  0  0  0  0  0
  -38.3830  164.3160   -2.1790 C   0  0  0  0  0  0  0  0  0  0  0  0
  -38.7370  162.9040   -2.3250 N   0  0  0  0  0  0  0  0  0  0  0  0
  -39.0110  162.1910   -1.1550 C   0  0  0  0  0  0  0  0  0  0  0  0
  -38.9870  162.7010   -0.0340 O   0  0  0  0  0  0  0  0  0  0  0  0
  -39.3590  160.7390   -1.2970 C   0  0  0  0  0  0  0  0  0  0  0  0
  -39.6660  159.9320   -0.0990 C   0  0  0  0  0  0  0  0  0  0  0  0
  -38.6310  159.1600    0.4640 C   0  0  0  0  0  0  0  0  0  0  0  0
  -38.8620  158.3700    1.5920 C   0  0  0  0  0  0  0  0  0  0  0  0
  -37.8840  157.5650    2.2150 N   0  0  0  0  0  0  0  0  0  0  0  0
  -37.3310  157.7380    3.4750 C   0  0  0  0  0  0  0  0  0  0  0  0
  -37.7020  158.5800    4.2820 O   0  0  0  0  0  0  0  0  0  0  0  0
  -36.3130  156.8210    3.6780 N   0  0  0  0  0  0  0  0  0  0  0  0
  -35.5720  156.6050    4.8590 C   0  0  0  0  0  0  0  0  0  0  0  0
  -34.3950  157.2840    5.1770 C   0  0  0  0  0  0  0  0  0  0  0  0
  -33.7240  157.0190    6.3760 C   0  0  0  0  0  0  0  0  0  0  0  0
  -34.2280  156.0760    7.2680 C   0  0  0  0  0  0  0  0  0  0  0  0
  -35.4040  155.3980    6.9640 C   0  0  0  0  0  0  0  0  0  0  0  0
  -36.0740  155.6630    5.7670 C   0  0  0  0  0  0  0  0  0  0  0  0
  -40.1510  158.3460    2.1380 C   0  0  0  0  0  0  0  0  0  0  0  0
  -40.3940  157.5810    3.2150 F   0  0  0  0  0  0  0  0  0  0  0  0
  -41.1860  159.1040    1.6050 C   0  0  0  0  0  0  0  0  0  0  0  0
  -40.9420  159.9030    0.4870 C   0  0  0  0  0  0  0  0  0  0  0  0
  -42.3880  160.9470   -0.1740 Br  0  0  0  0  0  0  0  0  0  0  0  0
  -39.3900  160.1550   -2.5030 C   0  0  0  0  0  0  0  0  0  0  0  0
  -39.0660  160.9200   -3.6970 C   0  0  0  0  0  0  0  0  0  0  0  0
  -39.0610  160.3260   -4.9540 C   0  0  0  0  0  0  0  0  0  0  0  0
  -38.7610  160.9730   -6.1000 N   0  0  0  0  0  0  0  0  0  0  0  0
  -38.4490  162.2760   -6.0080 C   0  0  0  0  0  0  0  0  0  0  0  0
  -38.1240  162.9000   -7.2140 N   0  0  0  0  0  0  0  0  0  0  0  0
  -38.2770  164.3450   -7.1930 C   0  0  0  0  0  0  0  0  0  0  0  0
  -38.4150  162.9510   -4.7920 C   0  0  0  0  0  0  0  0  0  0  0  0
  -38.7360  162.2730   -3.6100 C   0  0  0  0  0  0  0  0  0  0  0  0
  -39.6750  165.9554   -2.7093 H   0  0  0  0  0  0  0  0  0  0  0  0
  -38.3124  165.6774   -3.8462 H   0  0  0  0  0  0  0  0  0  0  0  0
  -39.7232  164.5656   -3.8462 H   0  0  0  0  0  0  0  0  0  0  0  0
  -37.2940  164.4221   -2.2920 H   0  0  0  0  0  0  0  0  0  0  0  0
  -38.7154  164.6472   -1.1841 H   0  0  0  0  0  0  0  0  0  0  0  0
  -37.6293  159.1797    0.0099 H   0  0  0  0  0  0  0  0  0  0  0  0
  -37.7140  156.6750    1.7630 H   0  0  0  0  0  0  0  0  0  0  0  0
  -35.9730  156.3510    2.8540 H   0  0  0  0  0  0  0  0  0  0  0  0
  -33.9917  158.0332    4.4798 H   0  0  0  0  0  0  0  0  0  0  0  0
  -32.7950  157.5576    6.6147 H   0  0  0  0  0  0  0  0  0  0  0  0
  -33.6983  155.8680    8.2094 H   0  0  0  0  0  0  0  0  0  0  0  0
  -35.8065  154.6531    7.6662 H   0  0  0  0  0  0  0  0  0  0  0  0
  -37.0057  155.1264    5.5348 H   0  0  0  0  0  0  0  0  0  0  0  0
  -42.1874  159.0748    2.0594 H   0  0  0  0  0  0  0  0  0  0  0  0
  -39.6616  159.0926   -2.5902 H   0  0  0  0  0  0  0  0  0  0  0  0
  -39.3185  159.2585   -5.0189 H   0  0  0  0  0  0  0  0  0  0  0  0
  -38.7650  162.4750   -7.8870 H   0  0  0  0  0  0  0  0  0  0  0  0
  -38.3140  164.6947   -6.1507 H   0  0  0  0  0  0  0  0  0  0  0  0
  -37.4232  164.8116   -7.7062 H   0  0  0  0  0  0  0  0  0  0  0  0
  -39.2095  164.6225   -7.7062 H   0  0  0  0  0  0  0  0  0  0  0  0
  -38.1366  164.0147   -4.7594 H   0  0  0  0  0  0  0  0  0  0  0  0
  1  2  1  0
  2  3  1  0
  3  4  1  0
  4  5  2  0
  4  6  1  0
  6  7  1  0
  7  8  1  0
  8  9  2  0
  9 10  1  0
 10 11  1  0
 11 12  2  0
 11 13  1  0
 13 14  1  0
 14 15  2  0
 15 16  1  0
 16 17  2  0
 17 18  1  0
 18 19  2  0
  9 20  1  0
 20 21  1  0
 20 22  2  0
 22 23  1  0
 23 24  1  0
  6 25  2  0
 25 26  1  0
 26 27  2  0
 27 28  1  0
 28 29  2  0
 29 30  1  0
 30 31  1  0
 29 32  1  0
 32 33  2  0
 33  3  1  0
 23  7  2  0
 33 26  1  0
 19 14  1  0
  1 34  1  0
  1 35  1  0
  1 36  1  0
  2 37  1  0
  2 38  1  0
  8 39  1  0
 10 40  1  0
 13 41  1  0
 15 42  1  0
 16 43  1  0
 17 44  1  0
 18 45  1  0
 19 46  1  0
 22 47  1  0
 25 48  1  0
 27 49  1  0
 30 50  1  0
 31 51  1  0
 31 52  1  0
 31 53  1  0
 32 54  1  0
M  END
>  <meeko>  (2) 
{"is_sidechain": false}

>  <vina_affinity_kcal_mol>  (2) 
-10.046

>  <pose_rank>  (2) 
2

$$$$

     RDKit          3D

 54 57  0  0  0  0  0  0  0  0999 V2000
  -39.7990  150.4180    5.4230 C   0  0  0  0  0  0  0  0  0  0  0  0
  -38.4120  150.3460    4.8000 C   0  0  0  0  0  0  0  0  0  0  0  0
  -37.4330  151.1370    5.5450 N   0  0  0  0  0  0  0  0  0  0  0  0
  -37.2350  152.4570    5.1340 C   0  0  0  0  0  0  0  0  0  0  0  0
  -37.8540  152.9730    4.2030 O   0  0  0  0  0  0  0  0  0  0  0  0
  -36.2200  153.2690    5.8830 C   0  0  0  0  0  0  0  0  0  0  0  0
  -35.9680  154.6730    5.5010 C   0  0  0  0  0  0  0  0  0  0  0  0
  -37.0570  155.4420    5.0450 C   0  0  0  0  0  0  0  0  0  0  0  0
  -36.8790  156.7730    4.6620 C   0  0  0  0  0  0  0  0  0  0  0  0
  -37.9130  157.6110    4.1900 N   0  0  0  0  0  0  0  0  0  0  0  0
  -38.1460  158.0010    2.8800 C   0  0  0  0  0  0  0  0  0  0  0  0
  -37.5270  157.5770    1.9130 O   0  0  0  0  0  0  0  0  0  0  0  0
  -39.1760  158.9260    2.8350 N   0  0  0  0  0  0  0  0  0  0  0  0
  -39.7780  159.4900    1.6900 C   0  0  0  0  0  0  0  0  0  0  0  0
  -41.1060  159.2760    1.3210 C   0  0  0  0  0  0  0  0  0  0  0  0
  -41.6300  159.8830    0.1730 C   0  0  0  0  0  0  0  0  0  0  0  0
  -40.8300  160.7110   -0.6100 C   0  0  0  0  0  0  0  0  0  0  0  0
  -39.5060  160.9360   -0.2470 C   0  0  0  0  0  0  0  0  0  0  0  0
  -38.9830  160.3310    0.8990 C   0  0  0  0  0  0  0  0  0  0  0  0
  -35.5910  157.3190    4.7200 C   0  0  0  0  0  0  0  0  0  0  0  0
  -35.4000  158.5940    4.3420 F   0  0  0  0  0  0  0  0  0  0  0  0
  -34.5030  156.5820    5.1730 C   0  0  0  0  0  0  0  0  0  0  0  0
  -34.6930  155.2580    5.5690 C   0  0  0  0  0  0  0  0  0  0  0  0
  -33.1750  154.3130    6.2160 Br  0  0  0  0  0  0  0  0  0  0  0  0
  -35.5260  152.7340    6.8980 C   0  0  0  0  0  0  0  0  0  0  0  0
  -35.7350  151.3450    7.2780 C   0  0  0  0  0  0  0  0  0  0  0  0
  -35.0040  150.7620    8.3060 C   0  0  0  0  0  0  0  0  0  0  0  0
  -35.1390  149.4780    8.7020 N   0  0  0  0  0  0  0  0  0  0  0  0
  -36.0430  148.7250    8.0540 C   0  0  0  0  0  0  0  0  0  0  0  0
  -36.1340  147.4000    8.4820 N   0  0  0  0  0  0  0  0  0  0  0  0
  -34.8710  146.6820    8.4610 C   0  0  0  0  0  0  0  0  0  0  0  0
  -36.8100  149.2190    7.0040 C   0  0  0  0  0  0  0  0  0  0  0  0
  -36.6680  150.5540    6.6060 C   0  0  0  0  0  0  0  0  0  0  0  0
  -39.7092  150.4133    6.5193 H   0  0  0  0  0  0  0  0  0  0  0  0
  -40.2985  151.3433    5.0999 H   0  0  0  0  0  0  0  0  0  0  0  0
  -40.3916  149.5494    5.0999 H   0  0  0  0  0  0  0  0  0  0  0  0
  -38.0834  149.2963    4.7861 H   0  0  0  0  0  0  0  0  0  0  0  0
  -38.4760  150.7574    3.7818 H   0  0  0  0  0  0  0  0  0  0  0  0
  -38.0579  154.9891    4.9901 H   0  0  0  0  0  0  0  0  0  0  0  0
  -38.6560  157.7850    4.8550 H   0  0  0  0  0  0  0  0  0  0  0  0
  -39.4320  159.3430    3.7170 H   0  0  0  0  0  0  0  0  0  0  0  0
  -41.7459  158.6261    1.9359 H   0  0  0  0  0  0  0  0  0  0  0  0
  -42.6776  159.7050   -0.1113 H   0  0  0  0  0  0  0  0  0  0  0  0
  -41.2433  161.1855   -1.5122 H   0  0  0  0  0  0  0  0  0  0  0  0
  -38.8707  161.5902   -0.8621 H   0  0  0  0  0  0  0  0  0  0  0  0
  -37.9367  160.5166    1.1833 H   0  0  0  0  0  0  0  0  0  0  0  0
  -33.5030  157.0379    5.2187 H   0  0  0  0  0  0  0  0  0  0  0  0
  -34.7956  153.3477    7.4457 H   0  0  0  0  0  0  0  0  0  0  0  0
  -34.2672  151.3873    8.8315 H   0  0  0  0  0  0  0  0  0  0  0  0
  -36.8030  146.9810    7.8340 H   0  0  0  0  0  0  0  0  0  0  0  0
  -34.5392  146.4934    9.4927 H   0  0  0  0  0  0  0  0  0  0  0  0
  -35.0027  145.7237    7.9372 H   0  0  0  0  0  0  0  0  0  0  0  0
  -34.1149  147.2853    7.9372 H   0  0  0  0  0  0  0  0  0  0  0  0
  -37.5261  148.5628    6.4877 H   0  0  0  0  0  0  0  0  0  0  0  0
  1  2  1  0
  2  3  1  0
  3  4  1  0
  4  5  2  0
  4  6  1  0
  6  7  1  0
  7  8  1  0
  8  9  2  0
  9 10  1  0
 10 11  1  0
 11 12  2  0
 11 13  1  0
 13 14  1  0
 14 15  2  0
 15 16  1  0
 16 17  2  0
 17 18  1  0
 18 19  2  0
  9 20  1  0
 20 21  1  0
 20 22  2  0
 22 23  1  0
 23 24  1  0
  6 25  2  0
 25 26  1  0
 26 27  2  0
 27 28  1  0
 28 29  2  0
 29 30  1  0
 30 31  1  0
 29 32  1  0
 32 33  2  0
 33  3  1  0
 23  7  2  0
 33 26  1  0
 19 14  1  0
  1 34  1  0
  1 35  1  0
  1 36  1  0
  2 37  1  0
  2 38  1  0
  8 39  1  0
 10 40  1  0
 13 41  1  0
 15 42  1  0
 16 43  1  0
 17 44  1  0
 18 45  1  0
 19 46  1  0
 22 47  1  0
 25 48  1  0
 27 49  1  0
 30 50  1  0
 31 51  1  0
 31 52  1  0
 31 53  1  0
 32 54  1  0
M  END
>  <meeko>  (3) 
{"is_sidechain": false}

>  <vina_affinity_kcal_mol>  (3) 
-9.086

>  <pose_rank>  (3) 
3

$$$$

     RDKit          3D

 54 57  0  0  0  0  0  0  0  0999 V2000
  -34.9950  149.2130    3.9720 C   0  0  0  0  0  0  0  0  0  0  0  0
  -34.8540  150.0320    5.2470 C   0  0  0  0  0  0  0  0  0  0  0  0
  -36.0560  150.8150    5.5340 N   0  0  0  0  0  0  0  0  0  0  0  0
  -35.9490  152.2050    5.4400 C   0  0  0  0  0  0  0  0  0  0  0  0
  -34.9110  152.7800    5.1120 O   0  0  0  0  0  0  0  0  0  0  0  0
  -37.1740  153.0150    5.7490 C   0  0  0  0  0  0  0  0  0  0  0  0
  -37.1280  154.4870    5.6610 C   0  0  0  0  0  0  0  0  0  0  0  0
  -37.9350  155.1210    4.6970 C   0  0  0  0  0  0  0  0  0  0  0  0
  -37.9280  156.5110    4.5610 C   0  0  0  0  0  0  0  0  0  0  0  0
  -38.7010  157.2230    3.6200 N   0  0  0  0  0  0  0  0  0  0  0  0
  -38.2500  157.8730    2.4810 C   0  0  0  0  0  0  0  0  0  0  0  0
  -37.0970  157.8310    2.0730 O   0  0  0  0  0  0  0  0  0  0  0  0
  -39.2920  158.5640    1.8820 N   0  0  0  0  0  0  0  0  0  0  0  0
  -39.2680  159.2670    0.6590 C   0  0  0  0  0  0  0  0  0  0  0  0
  -39.3630  160.6550    0.5550 C   0  0  0  0  0  0  0  0  0  0  0  0
  -39.3200  161.2770   -0.6970 C   0  0  0  0  0  0  0  0  0  0  0  0
  -39.1790  160.5160   -1.8550 C   0  0  0  0  0  0  0  0  0  0  0  0
  -39.0760  159.1310   -1.7620 C   0  0  0  0  0  0  0  0  0  0  0  0
  -39.1180  158.5100   -0.5110 C   0  0  0  0  0  0  0  0  0  0  0  0
  -37.0830  157.2590    5.3900 C   0  0  0  0  0  0  0  0  0  0  0  0
  -37.0530  158.5960    5.2640 F   0  0  0  0  0  0  0  0  0  0  0  0
  -36.2820  156.6570    6.3540 C   0  0  0  0  0  0  0  0  0  0  0  0
  -36.3080  155.2690    6.4930 C   0  0  0  0  0  0  0  0  0  0  0  0
  -35.2210  154.5070    7.8540 Br  0  0  0  0  0  0  0  0  0  0  0  0
  -38.3180  152.4180    6.1130 C   0  0  0  0  0  0  0  0  0  0  0  0
  -38.3840  150.9690    6.2330 C   0  0  0  0  0  0  0  0  0  0  0  0
  -39.5500  150.3330    6.6400 C   0  0  0  0  0  0  0  0  0  0  0  0
  -39.6770  148.9950    6.7830 N   0  0  0  0  0  0  0  0  0  0  0  0
  -38.6000  148.2420    6.5100 C   0  0  0  0  0  0  0  0  0  0  0  0
  -38.7700  146.8680    6.6910 N   0  0  0  0  0  0  0  0  0  0  0  0
  -40.1160  146.4840    7.0850 C   0  0  0  0  0  0  0  0  0  0  0  0
  -37.3860  148.7920    6.1090 C   0  0  0  0  0  0  0  0  0  0  0  0
  -37.2670  150.1780    5.9570 C   0  0  0  0  0  0  0  0  0  0  0  0
  -35.1764  148.1595    4.2311 H   0  0  0  0  0  0  0  0  0  0  0  0
  -35.8404  149.5962    3.3817 H   0  0  0  0  0  0  0  0  0  0  0  0
  -34.0701  149.2914    3.3817 H   0  0  0  0  0  0  0  0  0  0  0  0
  -34.6665  149.3488    6.0885 H   0  0  0  0  0  0  0  0  0  0  0  0
  -34.0180  150.7334    5.1083 H   0  0  0  0  0  0  0  0  0  0  0  0
  -38.5787  154.5143    4.0431 H   0  0  0  0  0  0  0  0  0  0  0  0
  -39.7010  157.0810    3.6940 H   0  0  0  0  0  0  0  0  0  0  0  0
  -40.1170  158.6920    2.4470 H   0  0  0  0  0  0  0  0  0  0  0  0
  -39.4725  161.2645    1.4641 H   0  0  0  0  0  0  0  0  0  0  0  0
  -39.3979  162.3720   -0.7674 H   0  0  0  0  0  0  0  0  0  0  0  0
  -39.1492  161.0074   -2.8387 H   0  0  0  0  0  0  0  0  0  0  0  0
  -38.9616  158.5255   -2.6732 H   0  0  0  0  0  0  0  0  0  0  0  0
  -39.0324  157.4154   -0.4437 H   0  0  0  0  0  0  0  0  0  0  0  0
  -35.6349  157.2684    7.0000 H   0  0  0  0  0  0  0  0  0  0  0  0
  -39.2106  153.0260    6.3219 H   0  0  0  0  0  0  0  0  0  0  0  0
  -40.4272  150.9591    6.8603 H   0  0  0  0  0  0  0  0  0  0  0  0
  -38.0950  146.6340    7.4200 H   0  0  0  0  0  0  0  0  0  0  0  0
  -40.1852  146.4643    8.1826 H   0  0  0  0  0  0  0  0  0  0  0  0
  -40.8369  147.2123    6.6852 H   0  0  0  0  0  0  0  0  0  0  0  0
  -40.3441  145.4849    6.6852 H   0  0  0  0  0  0  0  0  0  0  0  0
  -36.5228  148.1393    5.9122 H   0  0  0  0  0  0  0  0  0  0  0  0
  1  2  1  0
  2  3  1  0
  3  4  1  0
  4  5  2  0
  4  6  1  0
  6  7  1  0
  7  8  1  0
  8  9  2  0
  9 10  1  0
 10 11  1  0
 11 12  2  0
 11 13  1  0
 13 14  1  0
 14 15  2  0
 15 16  1  0
 16 17  2  0
 17 18  1  0
 18 19  2  0
  9 20  1  0
 20 21  1  0
 20 22  2  0
 22 23  1  0
 23 24  1  0
  6 25  2  0
 25 26  1  0
 26 27  2  0
 27 28  1  0
 28 29  2  0
 29 30  1  0
 30 31  1  0
 29 32  1  0
 32 33  2  0
 33  3  1  0
 23  7  2  0
 33 26  1  0
 19 14  1  0
  1 34  1  0
  1 35  1  0
  1 36  1  0
  2 37  1  0
  2 38  1  0
  8 39  1  0
 10 40  1  0
 13 41  1  0
 15 42  1  0
 16 43  1  0
 17 44  1  0
 18 45  1  0
 19 46  1  0
 22 47  1  0
 25 48  1  0
 27 49  1  0
 30 50  1  0
 31 51  1  0
 31 52  1  0
 31 53  1  0
 32 54  1  0
M  END
>  <meeko>  (4) 
{"is_sidechain": false}

>  <vina_affinity_kcal_mol>  (4) 
-8.313

>  <pose_rank>  (4) 
4

$$$$

     RDKit          3D

 54 57  0  0  0  0  0  0  0  0999 V2000
  -34.5740  145.6740   -2.3670 C   0  0  0  0  0  0  0  0  0  0  0  0
  -34.8160  147.1090   -1.9220 C   0  0  0  0  0  0  0  0  0  0  0  0
  -35.7840  147.1900   -0.8280 N   0  0  0  0  0  0  0  0  0  0  0  0
  -35.2820  147.1140    0.4740 C   0  0  0  0  0  0  0  0  0  0  0  0
  -34.0820  147.0050    0.7280 O   0  0  0  0  0  0  0  0  0  0  0  0
  -36.2700  147.1800    1.6010 C   0  0  0  0  0  0  0  0  0  0  0  0
  -35.8020  147.1120    2.9990 C   0  0  0  0  0  0  0  0  0  0  0  0
  -35.3100  148.2900    3.5940 C   0  0  0  0  0  0  0  0  0  0  0  0
  -34.8450  148.2850    4.9110 C   0  0  0  0  0  0  0  0  0  0  0  0
  -34.3330  149.4180    5.5780 N   0  0  0  0  0  0  0  0  0  0  0  0
  -34.8850  150.6890    5.6190 C   0  0  0  0  0  0  0  0  0  0  0  0
  -35.9760  150.9840    5.1510 O   0  0  0  0  0  0  0  0  0  0  0  0
  -34.0250  151.5610    6.2680 N   0  0  0  0  0  0  0  0  0  0  0  0
  -34.2570  152.9120    6.6000 C   0  0  0  0  0  0  0  0  0  0  0  0
  -35.3620  153.3580    7.3270 C   0  0  0  0  0  0  0  0  0  0  0  0
  -35.5140  154.7170    7.6250 C   0  0  0  0  0  0  0  0  0  0  0  0
  -34.5600  155.6390    7.2020 C   0  0  0  0  0  0  0  0  0  0  0  0
  -33.4510  155.2040    6.4820 C   0  0  0  0  0  0  0  0  0  0  0  0
  -33.2990  153.8470    6.1860 C   0  0  0  0  0  0  0  0  0  0  0  0
  -34.8600  147.0780    5.6200 C   0  0  0  0  0  0  0  0  0  0  0  0
  -34.4050  147.0520    6.8830 F   0  0  0  0  0  0  0  0  0  0  0  0
  -35.3480  145.9040    5.0570 C   0  0  0  0  0  0  0  0  0  0  0  0
  -35.8240  145.9220    3.7470 C   0  0  0  0  0  0  0  0  0  0  0  0
  -36.5140  144.2950    3.0450 Br  0  0  0  0  0  0  0  0  0  0  0  0
  -37.5830  147.2950    1.3560 C   0  0  0  0  0  0  0  0  0  0  0  0
  -38.0740  147.3380   -0.0130 C   0  0  0  0  0  0  0  0  0  0  0  0
  -39.4330  147.4240   -0.2890 C   0  0  0  0  0  0  0  0  0  0  0  0
  -39.9570  147.4570   -1.5330 N   0  0  0  0  0  0  0  0  0  0  0  0
  -39.0980  147.4040   -2.5640 C   0  0  0  0  0  0  0  0  0  0  0  0
  -39.6830  147.4200   -3.8320 N   0  0  0  0  0  0  0  0  0  0  0  0
  -40.9310  146.6790   -3.9170 C   0  0  0  0  0  0  0  0  0  0  0  0
  -37.7210  147.3030   -2.3850 C   0  0  0  0  0  0  0  0  0  0  0  0
  -37.1890  147.2780   -1.0900 C   0  0  0  0  0  0  0  0  0  0  0  0
  -34.4653  145.0292   -1.4825 H   0  0  0  0  0  0  0  0  0  0  0  0
  -35.4265  145.3284   -2.9701 H   0  0  0  0  0  0  0  0  0  0  0  0
  -33.6553  145.6271   -2.9701 H   0  0  0  0  0  0  0  0  0  0  0  0
  -33.8625  147.5414   -1.5847 H   0  0  0  0  0  0  0  0  0  0  0  0
  -35.2254  147.6648   -2.7784 H   0  0  0  0  0  0  0  0  0  0  0  0
  -35.2918  149.2249    3.0147 H   0  0  0  0  0  0  0  0  0  0  0  0
  -33.5910  149.2240    6.2390 H   0  0  0  0  0  0  0  0  0  0  0  0
  -33.0790  151.2340    6.3950 H   0  0  0  0  0  0  0  0  0  0  0  0
  -36.1187  152.6362    7.6681 H   0  0  0  0  0  0  0  0  0  0  0  0
  -36.3904  155.0581    8.1955 H   0  0  0  0  0  0  0  0  0  0  0  0
  -34.6823  156.7069    7.4359 H   0  0  0  0  0  0  0  0  0  0  0  0
  -32.6944  155.9284    6.1461 H   0  0  0  0  0  0  0  0  0  0  0  0
  -32.4174  153.5089    5.6217 H   0  0  0  0  0  0  0  0  0  0  0  0
  -35.3583  144.9708    5.6393 H   0  0  0  0  0  0  0  0  0  0  0  0
  -38.2927  147.3572    2.1941 H   0  0  0  0  0  0  0  0  0  0  0  0
  -40.1281  147.4681    0.5624 H   0  0  0  0  0  0  0  0  0  0  0  0
  -38.9700  147.0050   -4.4330 H   0  0  0  0  0  0  0  0  0  0  0  0
  -41.2979  146.4612   -2.9031 H   0  0  0  0  0  0  0  0  0  0  0  0
  -41.6782  147.2799   -4.4561 H   0  0  0  0  0  0  0  0  0  0  0  0
  -40.7611  145.7353   -4.4561 H   0  0  0  0  0  0  0  0  0  0  0  0
  -37.0537  147.2431   -3.2574 H   0  0  0  0  0  0  0  0  0  0  0  0
  1  2  1  0
  2  3  1  0
  3  4  1  0
  4  5  2  0
  4  6  1  0
  6  7  1  0
  7  8  1  0
  8  9  2  0
  9 10  1  0
 10 11  1  0
 11 12  2  0
 11 13  1  0
 13 14  1  0
 14 15  2  0
 15 16  1  0
 16 17  2  0
 17 18  1  0
 18 19  2  0
  9 20  1  0
 20 21  1  0
 20 22  2  0
 22 23  1  0
 23 24  1  0
  6 25  2  0
 25 26  1  0
 26 27  2  0
 27 28  1  0
 28 29  2  0
 29 30  1  0
 30 31  1  0
 29 32  1  0
 32 33  2  0
 33  3  1  0
 23  7  2  0
 33 26  1  0
 19 14  1  0
  1 34  1  0
  1 35  1  0
  1 36  1  0
  2 37  1  0
  2 38  1  0
  8 39  1  0
 10 40  1  0
 13 41  1  0
 15 42  1  0
 16 43  1  0
 17 44  1  0
 18 45  1  0
 19 46  1  0
 22 47  1  0
 25 48  1  0
 27 49  1  0
 30 50  1  0
 31 51  1  0
 31 52  1  0
 31 53  1  0
 32 54  1  0
M  END
>  <meeko>  (5) 
{"is_sidechain": false}

>  <vina_affinity_kcal_mol>  (5) 
-8.274

>  <pose_rank>  (5) 
5

$$$$

     RDKit          3D

 54 57  0  0  0  0  0  0  0  0999 V2000
  -34.5110  147.1140   -1.3500 C   0  0  0  0  0  0  0  0  0  0  0  0
  -35.2360  148.4100   -1.0180 C   0  0  0  0  0  0  0  0  0  0  0  0
  -36.1870  148.2420    0.0800 N   0  0  0  0  0  0  0  0  0  0  0  0
  -35.7030  148.4280    1.3770 C   0  0  0  0  0  0  0  0  0  0  0  0
  -34.5370  148.7400    1.6230 O   0  0  0  0  0  0  0  0  0  0  0  0
  -36.6700  148.2430    2.5090 C   0  0  0  0  0  0  0  0  0  0  0  0
  -36.2220  148.4300    3.9020 C   0  0  0  0  0  0  0  0  0  0  0  0
  -36.4150  149.6920    4.4980 C   0  0  0  0  0  0  0  0  0  0  0  0
  -36.0040  149.9320    5.8110 C   0  0  0  0  0  0  0  0  0  0  0  0
  -36.1560  151.1660    6.4800 N   0  0  0  0  0  0  0  0  0  0  0  0
  -35.5970  152.3850    6.1300 C   0  0  0  0  0  0  0  0  0  0  0  0
  -34.9580  152.5830    5.1050 O   0  0  0  0  0  0  0  0  0  0  0  0
  -35.8740  153.3330    7.1020 N   0  0  0  0  0  0  0  0  0  0  0  0
  -35.5690  154.7100    7.0740 C   0  0  0  0  0  0  0  0  0  0  0  0
  -34.2710  155.2210    7.0190 C   0  0  0  0  0  0  0  0  0  0  0  0
  -34.0540  156.6030    6.9840 C   0  0  0  0  0  0  0  0  0  0  0  0
  -35.1320  157.4840    6.9980 C   0  0  0  0  0  0  0  0  0  0  0  0
  -36.4300  156.9850    7.0450 C   0  0  0  0  0  0  0  0  0  0  0  0
  -36.6470  155.6050    7.0810 C   0  0  0  0  0  0  0  0  0  0  0  0
  -35.3750  148.8980    6.5140 C   0  0  0  0  0  0  0  0  0  0  0  0
  -34.9610  149.1150    7.7730 F   0  0  0  0  0  0  0  0  0  0  0  0
  -35.1800  147.6420    5.9500 C   0  0  0  0  0  0  0  0  0  0  0  0
  -35.6080  147.4070    4.6440 C   0  0  0  0  0  0  0  0  0  0  0  0
  -35.3480  145.6590    3.9410 Br  0  0  0  0  0  0  0  0  0  0  0  0
  -37.9450  147.8990    2.2740 C   0  0  0  0  0  0  0  0  0  0  0  0
  -38.4060  147.6810    0.9110 C   0  0  0  0  0  0  0  0  0  0  0  0
  -39.7150  147.2930    0.6470 C   0  0  0  0  0  0  0  0  0  0  0  0
  -40.2060  147.0650   -0.5900 N   0  0  0  0  0  0  0  0  0  0  0  0
  -39.3660  147.2260   -1.6260 C   0  0  0  0  0  0  0  0  0  0  0  0
  -39.9100  146.9590   -2.8840 N   0  0  0  0  0  0  0  0  0  0  0  0
  -40.8830  145.8790   -2.8910 C   0  0  0  0  0  0  0  0  0  0  0  0
  -38.0360  147.5990   -1.4570 C   0  0  0  0  0  0  0  0  0  0  0  0
  -37.5390  147.8420   -0.1710 C   0  0  0  0  0  0  0  0  0  0  0  0
  -34.2258  146.6042   -0.4179 H   0  0  0  0  0  0  0  0  0  0  0  0
  -35.1754  146.4620   -1.9361 H   0  0  0  0  0  0  0  0  0  0  0  0
  -33.6077  147.3389   -1.9361 H   0  0  0  0  0  0  0  0  0  0  0  0
  -34.4930  149.1687   -0.7309 H   0  0  0  0  0  0  0  0  0  0  0  0
  -35.7996  148.7212   -1.9099 H   0  0  0  0  0  0  0  0  0  0  0  0
  -36.8949  150.4974    3.9226 H   0  0  0  0  0  0  0  0  0  0  0  0
  -36.8960  151.1880    7.1710 H   0  0  0  0  0  0  0  0  0  0  0  0
  -36.2090  152.9750    7.9830 H   0  0  0  0  0  0  0  0  0  0  0  0
  -33.4131  154.5327    7.0031 H   0  0  0  0  0  0  0  0  0  0  0  0
  -33.0270  156.9951    6.9452 H   0  0  0  0  0  0  0  0  0  0  0  0
  -34.9583  158.5699    6.9720 H   0  0  0  0  0  0  0  0  0  0  0  0
  -37.2852  157.6767    7.0538 H   0  0  0  0  0  0  0  0  0  0  0  0
  -37.6757  155.2170    7.1152 H   0  0  0  0  0  0  0  0  0  0  0  0
  -34.6934  146.8425    6.5279 H   0  0  0  0  0  0  0  0  0  0  0  0
  -38.6447  147.7813    3.1146 H   0  0  0  0  0  0  0  0  0  0  0  0
  -40.3950  147.1633    1.5019 H   0  0  0  0  0  0  0  0  0  0  0  0
  -39.0960  146.7220   -3.4530 H   0  0  0  0  0  0  0  0  0  0  0  0
  -41.1318  145.6029   -1.8557 H   0  0  0  0  0  0  0  0  0  0  0  0
  -41.7940  146.2096   -3.4113 H   0  0  0  0  0  0  0  0  0  0  0  0
  -40.4595  145.0073   -3.4113 H   0  0  0  0  0  0  0  0  0  0  0  0
  -37.3769  147.7026   -2.3316 H   0  0  0  0  0  0  0  0  0  0  0  0
  1  2  1  0
  2  3  1  0
  3  4  1  0
  4  5  2  0
  4  6  1  0
  6  7  1  0
  7  8  1  0
  8  9  2  0
  9 10  1  0
 10 11  1  0
 11 12  2  0
 11 13  1  0
 13 14  1  0
 14 15  2  0
 15 16  1  0
 16 17  2  0
 17 18  1  0
 18 19  2  0
  9 20  1  0
 20 21  1  0
 20 22  2  0
 22 23  1  0
 23 24  1  0
  6 25  2  0
 25 26  1  0
 26 27  2  0
 27 28  1  0
 28 29  2  0
 29 30  1  0
 30 31  1  0
 29 32  1  0
 32 33  2  0
 33  3  1  0
 23  7  2  0
 33 26  1  0
 19 14  1  0
  1 34  1  0
  1 35  1  0
  1 36  1  0
  2 37  1  0
  2 38  1  0
  8 39  1  0
 10 40  1  0
 13 41  1  0
 15 42  1  0
 16 43  1  0
 17 44  1  0
 18 45  1  0
 19 46  1  0
 22 47  1  0
 25 48  1  0
 27 49  1  0
 30 50  1  0
 31 51  1  0
 31 52  1  0
 31 53  1  0
 32 54  1  0
M  END
>  <meeko>  (6) 
{"is_sidechain": false}

>  <vina_affinity_kcal_mol>  (6) 
-8.164

>  <pose_rank>  (6) 
6

$$$$

     RDKit          3D

 54 57  0  0  0  0  0  0  0  0999 V2000
  -38.9430  146.4090    1.3890 C   0  0  0  0  0  0  0  0  0  0  0  0
  -38.1410  147.6560    1.0460 C   0  0  0  0  0  0  0  0  0  0  0  0
  -36.8790  147.7190    1.7820 N   0  0  0  0  0  0  0  0  0  0  0  0
  -36.8900  148.3840    3.0110 C   0  0  0  0  0  0  0  0  0  0  0  0
  -37.9030  148.8890    3.4950 O   0  0  0  0  0  0  0  0  0  0  0  0
  -35.5950  148.4650    3.7640 C   0  0  0  0  0  0  0  0  0  0  0  0
  -35.5420  149.1490    5.0710 C   0  0  0  0  0  0  0  0  0  0  0  0
  -35.2520  150.5280    5.0880 C   0  0  0  0  0  0  0  0  0  0  0  0
  -35.1800  151.2280    6.2940 C   0  0  0  0  0  0  0  0  0  0  0  0
  -34.8910  152.6050    6.3990 N   0  0  0  0  0  0  0  0  0  0  0  0
  -35.6920  153.6640    5.9990 C   0  0  0  0  0  0  0  0  0  0  0  0
  -36.8360  153.5450    5.5810 O   0  0  0  0  0  0  0  0  0  0  0  0
  -35.0100  154.8610    6.1500 N   0  0  0  0  0  0  0  0  0  0  0  0
  -35.5060  156.1660    5.9490 C   0  0  0  0  0  0  0  0  0  0  0  0
  -36.0260  156.9690    6.9650 C   0  0  0  0  0  0  0  0  0  0  0  0
  -36.4890  158.2590    6.6830 C   0  0  0  0  0  0  0  0  0  0  0  0
  -36.4310  158.7570    5.3840 C   0  0  0  0  0  0  0  0  0  0  0  0
  -35.9080  157.9670    4.3640 C   0  0  0  0  0  0  0  0  0  0  0  0
  -35.4460  156.6790    4.6460 C   0  0  0  0  0  0  0  0  0  0  0  0
  -35.3800  150.5240    7.4880 C   0  0  0  0  0  0  0  0  0  0  0  0
  -35.3010  151.1780    8.6580 F   0  0  0  0  0  0  0  0  0  0  0  0
  -35.6740  149.1660    7.4960 C   0  0  0  0  0  0  0  0  0  0  0  0
  -35.7600  148.4780    6.2860 C   0  0  0  0  0  0  0  0  0  0  0  0
  -36.2030  146.6300    6.3590 Br  0  0  0  0  0  0  0  0  0  0  0  0
  -34.4730  147.9290    3.2620 C   0  0  0  0  0  0  0  0  0  0  0  0
  -34.4920  147.2730    1.9630 C   0  0  0  0  0  0  0  0  0  0  0  0
  -33.3340  146.7380    1.4100 C   0  0  0  0  0  0  0  0  0  0  0  0
  -33.2780  146.1260    0.2070 N   0  0  0  0  0  0  0  0  0  0  0  0
  -34.4210  146.0330   -0.4900 C   0  0  0  0  0  0  0  0  0  0  0  0
  -34.3130  145.4120   -1.7360 N   0  0  0  0  0  0  0  0  0  0  0  0
  -35.1850  145.9720   -2.7550 C   0  0  0  0  0  0  0  0  0  0  0  0
  -35.6260  146.5500   -0.0230 C   0  0  0  0  0  0  0  0  0  0  0  0
  -35.6750  147.1760    1.2290 C   0  0  0  0  0  0  0  0  0  0  0  0
  -39.0098  146.3051    2.4820 H   0  0  0  0  0  0  0  0  0  0  0  0
  -39.9549  146.4961    0.9664 H   0  0  0  0  0  0  0  0  0  0  0  0
  -38.4441  145.5244    0.9664 H   0  0  0  0  0  0  0  0  0  0  0  0
  -37.9228  147.6518   -0.0321 H   0  0  0  0  0  0  0  0  0  0  0  0
  -38.7417  148.5331    1.3286 H   0  0  0  0  0  0  0  0  0  0  0  0
  -35.0804  151.0591    4.1401 H   0  0  0  0  0  0  0  0  0  0  0  0
  -34.1040  152.8320    6.9940 H   0  0  0  0  0  0  0  0  0  0  0  0
  -34.0140  154.7850    6.2870 H   0  0  0  0  0  0  0  0  0  0  0  0
  -36.0722  156.5851    7.9948 H   0  0  0  0  0  0  0  0  0  0  0  0
  -36.9004  158.8821    7.4907 H   0  0  0  0  0  0  0  0  0  0  0  0
  -36.7971  159.7708    5.1646 H   0  0  0  0  0  0  0  0  0  0  0  0
  -35.8585  158.3567    3.3365 H   0  0  0  0  0  0  0  0  0  0  0  0
  -35.0306  156.0607    3.8366 H   0  0  0  0  0  0  0  0  0  0  0  0
  -35.8373  148.6387    8.4475 H   0  0  0  0  0  0  0  0  0  0  0  0
  -33.5351  147.9853    3.8340 H   0  0  0  0  0  0  0  0  0  0  0  0
  -32.4027  146.8183    1.9899 H   0  0  0  0  0  0  0  0  0  0  0  0
  -34.5550  144.4380   -1.5430 H   0  0  0  0  0  0  0  0  0  0  0  0
  -36.0168  146.5062   -2.2726 H   0  0  0  0  0  0  0  0  0  0  0  0
  -34.6138  146.6725   -3.3818 H   0  0  0  0  0  0  0  0  0  0  0  0
  -35.5844  145.1611   -3.3818 H   0  0  0  0  0  0  0  0  0  0  0  0
  -36.5364  146.4673   -0.6349 H   0  0  0  0  0  0  0  0  0  0  0  0
  1  2  1  0
  2  3  1  0
  3  4  1  0
  4  5  2  0
  4  6  1  0
  6  7  1  0
  7  8  1  0
  8  9  2  0
  9 10  1  0
 10 11  1  0
 11 12  2  0
 11 13  1  0
 13 14  1  0
 14 15  2  0
 15 16  1  0
 16 17  2  0
 17 18  1  0
 18 19  2  0
  9 20  1  0
 20 21  1  0
 20 22  2  0
 22 23  1  0
 23 24  1  0
  6 25  2  0
 25 26  1  0
 26 27  2  0
 27 28  1  0
 28 29  2  0
 29 30  1  0
 30 31  1  0
 29 32  1  0
 32 33  2  0
 33  3  1  0
 23  7  2  0
 33 26  1  0
 19 14  1  0
  1 34  1  0
  1 35  1  0
  1 36  1  0
  2 37  1  0
  2 38  1  0
  8 39  1  0
 10 40  1  0
 13 41  1  0
 15 42  1  0
 16 43  1  0
 17 44  1  0
 18 45  1  0
 19 46  1  0
 22 47  1  0
 25 48  1  0
 27 49  1  0
 30 50  1  0
 31 51  1  0
 31 52  1  0
 31 53  1  0
 32 54  1  0
M  END
>  <meeko>  (7) 
{"is_sidechain": false}

>  <vina_affinity_kcal_mol>  (7) 
-8.019

>  <pose_rank>  (7) 
7

$$$$

     RDKit          3D

 54 57  0  0  0  0  0  0  0  0999 V2000
  -40.5650  145.1820    1.7860 C   0  0  0  0  0  0  0  0  0  0  0  0
  -40.5260  146.7030    1.7970 C   0  0  0  0  0  0  0  0  0  0  0  0
  -39.1590  147.2200    1.7440 N   0  0  0  0  0  0  0  0  0  0  0  0
  -38.5410  147.5130    2.9630 C   0  0  0  0  0  0  0  0  0  0  0  0
  -39.0850  147.3380    4.0540 O   0  0  0  0  0  0  0  0  0  0  0  0
  -37.1440  148.0580    2.9160 C   0  0  0  0  0  0  0  0  0  0  0  0
  -36.4350  148.3830    4.1690 C   0  0  0  0  0  0  0  0  0  0  0  0
  -36.6490  149.6510    4.7440 C   0  0  0  0  0  0  0  0  0  0  0  0
  -35.9990  150.0180    5.9250 C   0  0  0  0  0  0  0  0  0  0  0  0
  -36.1540  151.2670    6.5630 N   0  0  0  0  0  0  0  0  0  0  0  0
  -35.6080  152.4820    6.1760 C   0  0  0  0  0  0  0  0  0  0  0  0
  -34.9800  152.6580    5.1410 O   0  0  0  0  0  0  0  0  0  0  0  0
  -35.8830  153.4520    7.1260 N   0  0  0  0  0  0  0  0  0  0  0  0
  -35.5880  154.8300    7.0600 C   0  0  0  0  0  0  0  0  0  0  0  0
  -34.2950  155.3530    7.0720 C   0  0  0  0  0  0  0  0  0  0  0  0
  -34.0870  156.7350    6.9910 C   0  0  0  0  0  0  0  0  0  0  0  0
  -35.1720  157.6030    6.8950 C   0  0  0  0  0  0  0  0  0  0  0  0
  -36.4660  157.0910    6.8750 C   0  0  0  0  0  0  0  0  0  0  0  0
  -36.6720  155.7120    6.9550 C   0  0  0  0  0  0  0  0  0  0  0  0
  -35.1140  149.1060    6.5110 C   0  0  0  0  0  0  0  0  0  0  0  0
  -34.4700  149.4480    7.6390 F   0  0  0  0  0  0  0  0  0  0  0  0
  -34.8910  147.8470    5.9660 C   0  0  0  0  0  0  0  0  0  0  0  0
  -35.5570  147.4830    4.7960 C   0  0  0  0  0  0  0  0  0  0  0  0
  -35.2420  145.7340    4.1190 Br  0  0  0  0  0  0  0  0  0  0  0  0
  -36.5270  148.2650    1.7440 C   0  0  0  0  0  0  0  0  0  0  0  0
  -37.2130  147.9790    0.4920 C   0  0  0  0  0  0  0  0  0  0  0  0
  -36.6030  148.2160   -0.7340 C   0  0  0  0  0  0  0  0  0  0  0  0
  -37.1850  147.9830   -1.9300 N   0  0  0  0  0  0  0  0  0  0  0  0
  -38.4340  147.4910   -1.9230 C   0  0  0  0  0  0  0  0  0  0  0  0
  -39.0040  147.2860   -3.1800 N   0  0  0  0  0  0  0  0  0  0  0  0
  -40.4360  147.0380   -3.1480 C   0  0  0  0  0  0  0  0  0  0  0  0
  -39.1290  147.2360   -0.7440 C   0  0  0  0  0  0  0  0  0  0  0  0
  -38.5130  147.4720    0.4910 C   0  0  0  0  0  0  0  0  0  0  0  0
  -40.5746  144.8080    2.8204 H   0  0  0  0  0  0  0  0  0  0  0  0
  -41.4722  144.8422    1.2648 H   0  0  0  0  0  0  0  0  0  0  0  0
  -39.6765  144.7962    1.2648 H   0  0  0  0  0  0  0  0  0  0  0  0
  -41.0809  147.0781    0.9244 H   0  0  0  0  0  0  0  0  0  0  0  0
  -40.9810  147.0461    2.7379 H   0  0  0  0  0  0  0  0  0  0  0  0
  -37.3353  150.3600    4.2579 H   0  0  0  0  0  0  0  0  0  0  0  0
  -36.8870  151.3010    7.2610 H   0  0  0  0  0  0  0  0  0  0  0  0
  -36.2060  153.1140    8.0200 H   0  0  0  0  0  0  0  0  0  0  0  0
  -33.4323  154.6745    7.1457 H   0  0  0  0  0  0  0  0  0  0  0  0
  -33.0631  157.1368    7.0032 H   0  0  0  0  0  0  0  0  0  0  0  0
  -35.0068  158.6889    6.8352 H   0  0  0  0  0  0  0  0  0  0  0  0
  -37.3261  157.7722    6.7962 H   0  0  0  0  0  0  0  0  0  0  0  0
  -37.6971  155.3135    6.9354 H   0  0  0  0  0  0  0  0  0  0  0  0
  -34.1970  147.1455    6.4521 H   0  0  0  0  0  0  0  0  0  0  0  0
  -35.4977  148.6527    1.7281 H   0  0  0  0  0  0  0  0  0  0  0  0
  -35.5797  148.6196   -0.7299 H   0  0  0  0  0  0  0  0  0  0  0  0
  -38.5010  146.4760   -3.5450 H   0  0  0  0  0  0  0  0  0  0  0  0
  -40.7747  146.9793   -2.1031 H   0  0  0  0  0  0  0  0  0  0  0  0
  -40.9617  147.8585   -3.6583 H   0  0  0  0  0  0  0  0  0  0  0  0
  -40.6552  146.0885   -3.6583 H   0  0  0  0  0  0  0  0  0  0  0  0
  -40.1585  146.8504   -0.7826 H   0  0  0  0  0  0  0  0  0  0  0  0
  1  2  1  0
  2  3  1  0
  3  4  1  0
  4  5  2  0
  4  6  1  0
  6  7  1  0
  7  8  1  0
  8  9  2  0
  9 10  1  0
 10 11  1  0
 11 12  2  0
 11 13  1  0
 13 14  1  0
 14 15  2  0
 15 16  1  0
 16 17  2  0
 17 18  1  0
 18 19  2  0
  9 20  1  0
 20 21  1  0
 20 22  2  0
 22 23  1  0
 23 24  1  0
  6 25  2  0
 25 26  1  0
 26 27  2  0
 27 28  1  0
 28 29  2  0
 29 30  1  0
 30 31  1  0
 29 32  1  0
 32 33  2  0
 33  3  1  0
 23  7  2  0
 33 26  1  0
 19 14  1  0
  1 34  1  0
  1 35  1  0
  1 36  1  0
  2 37  1  0
  2 38  1  0
  8 39  1  0
 10 40  1  0
 13 41  1  0
 15 42  1  0
 16 43  1  0
 17 44  1  0
 18 45  1  0
 19 46  1  0
 22 47  1  0
 25 48  1  0
 27 49  1  0
 30 50  1  0
 31 51  1  0
 31 52  1  0
 31 53  1  0
 32 54  1  0
M  END
>  <meeko>  (8) 
{"is_sidechain": false}

>  <vina_affinity_kcal_mol>  (8) 
-7.922

>  <pose_rank>  (8) 
8

$$$$

     RDKit          3D

 54 57  0  0  0  0  0  0  0  0999 V2000
  -35.3240  150.8350    8.9490 C   0  0  0  0  0  0  0  0  0  0  0  0
  -34.8430  151.2210    7.5580 C   0  0  0  0  0  0  0  0  0  0  0  0
  -35.9500  151.5770    6.6720 N   0  0  0  0  0  0  0  0  0  0  0  0
  -36.6080  150.5300    6.0210 C   0  0  0  0  0  0  0  0  0  0  0  0
  -36.3100  149.3460    6.1780 O   0  0  0  0  0  0  0  0  0  0  0  0
  -37.7350  150.8900    5.0980 C   0  0  0  0  0  0  0  0  0  0  0  0
  -38.4740  149.8300    4.3860 C   0  0  0  0  0  0  0  0  0  0  0  0
  -37.9640  149.3790    3.1520 C   0  0  0  0  0  0  0  0  0  0  0  0
  -38.6240  148.3840    2.4270 C   0  0  0  0  0  0  0  0  0  0  0  0
  -38.1840  147.8810    1.1840 N   0  0  0  0  0  0  0  0  0  0  0  0
  -36.9420  147.3390    0.8890 C   0  0  0  0  0  0  0  0  0  0  0  0
  -36.0680  147.1250    1.7180 O   0  0  0  0  0  0  0  0  0  0  0  0
  -36.8480  147.0750   -0.4680 N   0  0  0  0  0  0  0  0  0  0  0  0
  -35.7900  146.4360   -1.1490 C   0  0  0  0  0  0  0  0  0  0  0  0
  -35.8450  145.1230   -1.6180 C   0  0  0  0  0  0  0  0  0  0  0  0
  -34.7540  144.5650   -2.2950 C   0  0  0  0  0  0  0  0  0  0  0  0
  -33.6040  145.3180   -2.5120 C   0  0  0  0  0  0  0  0  0  0  0  0
  -33.5410  146.6310   -2.0550 C   0  0  0  0  0  0  0  0  0  0  0  0
  -34.6300  147.1880   -1.3790 C   0  0  0  0  0  0  0  0  0  0  0  0
  -39.8150  147.8600    2.9440 C   0  0  0  0  0  0  0  0  0  0  0  0
  -40.4690  146.9120    2.2530 F   0  0  0  0  0  0  0  0  0  0  0  0
  -40.3330  148.2830    4.1620 C   0  0  0  0  0  0  0  0  0  0  0  0
  -39.6590  149.2660    4.8860 C   0  0  0  0  0  0  0  0  0  0  0  0
  -40.3970  149.7760    6.5630 Br  0  0  0  0  0  0  0  0  0  0  0  0
  -38.0800  152.1710    4.9030 C   0  0  0  0  0  0  0  0  0  0  0  0
  -37.3510  153.2380    5.5720 C   0  0  0  0  0  0  0  0  0  0  0  0
  -37.6720  154.5730    5.3590 C   0  0  0  0  0  0  0  0  0  0  0  0
  -37.0310  155.6110    5.9380 N   0  0  0  0  0  0  0  0  0  0  0  0
  -36.0200  155.3230    6.7730 C   0  0  0  0  0  0  0  0  0  0  0  0
  -35.3730  156.4260    7.3330 N   0  0  0  0  0  0  0  0  0  0  0  0
  -35.9090  157.7070    6.9040 C   0  0  0  0  0  0  0  0  0  0  0  0
  -35.6190  154.0160    7.0370 C   0  0  0  0  0  0  0  0  0  0  0  0
  -36.2960  152.9470    6.4380 C   0  0  0  0  0  0  0  0  0  0  0  0
  -34.7005  151.3354    9.7045 H   0  0  0  0  0  0  0  0  0  0  0  0
  -36.3718  151.1458    9.0740 H   0  0  0  0  0  0  0  0  0  0  0  0
  -35.2475  149.7448    9.0740 H   0  0  0  0  0  0  0  0  0  0  0  0
  -34.1658  152.0836    7.6436 H   0  0  0  0  0  0  0  0  0  0  0  0
  -34.3285  150.3509    7.1241 H   0  0  0  0  0  0  0  0  0  0  0  0
  -37.0356  149.8155    2.7552 H   0  0  0  0  0  0  0  0  0  0  0  0
  -38.9160  147.7370    0.5000 H   0  0  0  0  0  0  0  0  0  0  0  0
  -37.5480  147.5080   -1.0500 H   0  0  0  0  0  0  0  0  0  0  0  0
  -36.7518  144.5222   -1.4547 H   0  0  0  0  0  0  0  0  0  0  0  0
  -34.8060  143.5275   -2.6568 H   0  0  0  0  0  0  0  0  0  0  0  0
  -32.7476  144.8768   -3.0430 H   0  0  0  0  0  0  0  0  0  0  0  0
  -32.6344  147.2301   -2.2258 H   0  0  0  0  0  0  0  0  0  0  0  0
  -34.5761  148.2276   -1.0237 H   0  0  0  0  0  0  0  0  0  0  0  0
  -41.2650  147.8470    4.5511 H   0  0  0  0  0  0  0  0  0  0  0  0
  -38.9181  152.4165    4.2341 H   0  0  0  0  0  0  0  0  0  0  0  0
  -38.5025  154.7991    4.6740 H   0  0  0  0  0  0  0  0  0  0  0  0
  -34.4040  156.3160    7.0310 H   0  0  0  0  0  0  0  0  0  0  0  0
  -36.1624  158.3126    7.7867 H   0  0  0  0  0  0  0  0  0  0  0  0
  -35.1566  158.2357    6.3003 H   0  0  0  0  0  0  0  0  0  0  0  0
  -36.8137  157.5423    6.3003 H   0  0  0  0  0  0  0  0  0  0  0  0
  -34.7733  153.8241    7.7138 H   0  0  0  0  0  0  0  0  0  0  0  0
  1  2  1  0
  2  3  1  0
  3  4  1  0
  4  5  2  0
  4  6  1  0
  6  7  1  0
  7  8  1  0
  8  9  2  0
  9 10  1  0
 10 11  1  0
 11 12  2  0
 11 13  1  0
 13 14  1  0
 14 15  2  0
 15 16  1  0
 16 17  2  0
 17 18  1  0
 18 19  2  0
  9 20  1  0
 20 21  1  0
 20 22  2  0
 22 23  1  0
 23 24  1  0
  6 25  2  0
 25 26  1  0
 26 27  2  0
 27 28  1  0
 28 29  2  0
 29 30  1  0
 30 31  1  0
 29 32  1  0
 32 33  2  0
 33  3  1  0
 23  7  2  0
 33 26  1  0
 19 14  1  0
  1 34  1  0
  1 35  1  0
  1 36  1  0
  2 37  1  0
  2 38  1  0
  8 39  1  0
 10 40  1  0
 13 41  1  0
 15 42  1  0
 16 43  1  0
 17 44  1  0
 18 45  1  0
 19 46  1  0
 22 47  1  0
 25 48  1  0
 27 49  1  0
 30 50  1  0
 31 51  1  0
 31 52  1  0
 31 53  1  0
 32 54  1  0
M  END
>  <meeko>  (9) 
{"is_sidechain": false}

>  <vina_affinity_kcal_mol>  (9) 
-7.743

>  <pose_rank>  (9) 
9

$$$$

     RDKit          3D

 54 57  0  0  0  0  0  0  0  0999 V2000
  -38.4150  154.1070    6.9530 C   0  0  0  0  0  0  0  0  0  0  0  0
  -37.8480  153.6520    5.6160 C   0  0  0  0  0  0  0  0  0  0  0  0
  -36.5600  152.9760    5.7660 N   0  0  0  0  0  0  0  0  0  0  0  0
  -36.5750  151.5790    5.8150 C   0  0  0  0  0  0  0  0  0  0  0  0
  -37.6060  150.9120    5.7190 O   0  0  0  0  0  0  0  0  0  0  0  0
  -35.2580  150.8800    5.9840 C   0  0  0  0  0  0  0  0  0  0  0  0
  -35.2060  149.4060    6.0380 C   0  0  0  0  0  0  0  0  0  0  0  0
  -35.1680  148.6980    4.8210 C   0  0  0  0  0  0  0  0  0  0  0  0
  -35.1260  147.3020    4.8070 C   0  0  0  0  0  0  0  0  0  0  0  0
  -35.0910  146.5180    3.6350 N   0  0  0  0  0  0  0  0  0  0  0  0
  -35.0190  146.9680    2.3250 C   0  0  0  0  0  0  0  0  0  0  0  0
  -34.8700  148.1390    2.0050 O   0  0  0  0  0  0  0  0  0  0  0  0
  -35.1340  145.9020    1.4480 N   0  0  0  0  0  0  0  0  0  0  0  0
  -35.0130  145.9260    0.0420 C   0  0  0  0  0  0  0  0  0  0  0  0
  -33.8140  145.7200   -0.6420 C   0  0  0  0  0  0  0  0  0  0  0  0
  -33.7820  145.7490   -2.0410 C   0  0  0  0  0  0  0  0  0  0  0  0
  -34.9480  145.9810   -2.7650 C   0  0  0  0  0  0  0  0  0  0  0  0
  -36.1500  146.1810   -2.0930 C   0  0  0  0  0  0  0  0  0  0  0  0
  -36.1820  146.1510   -0.6960 C   0  0  0  0  0  0  0  0  0  0  0  0
  -35.1450  146.6220    6.0310 C   0  0  0  0  0  0  0  0  0  0  0  0
  -35.1190  145.2790    6.0360 F   0  0  0  0  0  0  0  0  0  0  0  0
  -35.1750  147.2980    7.2450 C   0  0  0  0  0  0  0  0  0  0  0  0
  -35.2010  148.6920    7.2480 C   0  0  0  0  0  0  0  0  0  0  0  0
  -35.2020  149.5620    8.9400 Br  0  0  0  0  0  0  0  0  0  0  0  0
  -34.1190  151.5780    6.0960 C   0  0  0  0  0  0  0  0  0  0  0  0
  -34.1450  153.0330    6.0740 C   0  0  0  0  0  0  0  0  0  0  0  0
  -32.9800  153.7760    6.2200 C   0  0  0  0  0  0  0  0  0  0  0  0
  -32.9330  155.1260    6.2190 N   0  0  0  0  0  0  0  0  0  0  0  0
  -34.0950  155.7820    6.0650 C   0  0  0  0  0  0  0  0  0  0  0  0
  -34.0030  157.1750    6.0910 N   0  0  0  0  0  0  0  0  0  0  0  0
  -33.0290  157.7220    5.1610 C   0  0  0  0  0  0  0  0  0  0  0  0
  -35.3120  155.1230    5.9250 C   0  0  0  0  0  0  0  0  0  0  0  0
  -35.3480  153.7230    5.9190 C   0  0  0  0  0  0  0  0  0  0  0  0
  -37.8410  153.6464    7.7705 H   0  0  0  0  0  0  0  0  0  0  0  0
  -38.3448  155.2022    7.0274 H   0  0  0  0  0  0  0  0  0  0  0  0
  -39.4690  153.8012    7.0274 H   0  0  0  0  0  0  0  0  0  0  0  0
  -38.5604  152.9577    5.1465 H   0  0  0  0  0  0  0  0  0  0  0  0
  -37.6913  154.5450    4.9930 H   0  0  0  0  0  0  0  0  0  0  0  0
  -35.1714  149.2511    3.8702 H   0  0  0  0  0  0  0  0  0  0  0  0
  -34.9150  145.5320    3.7860 H   0  0  0  0  0  0  0  0  0  0  0  0
  -35.4760  145.0400    1.8450 H   0  0  0  0  0  0  0  0  0  0  0  0
  -32.8882  145.5337   -0.0780 H   0  0  0  0  0  0  0  0  0  0  0  0
  -32.8314  145.5878   -2.5706 H   0  0  0  0  0  0  0  0  0  0  0  0
  -34.9194  146.0062   -3.8643 H   0  0  0  0  0  0  0  0  0  0  0  0
  -37.0744  146.3626   -2.6609 H   0  0  0  0  0  0  0  0  0  0  0  0
  -37.1358  146.3058   -0.1703 H   0  0  0  0  0  0  0  0  0  0  0  0
  -35.1782  146.7396    8.1927 H   0  0  0  0  0  0  0  0  0  0  0  0
  -33.1608  151.0489    6.2050 H   0  0  0  0  0  0  0  0  0  0  0  0
  -32.0338  153.2290    6.3446 H   0  0  0  0  0  0  0  0  0  0  0  0
  -33.7420  157.3830    7.0570 H   0  0  0  0  0  0  0  0  0  0  0  0
  -32.2047  158.1849    5.7234 H   0  0  0  0  0  0  0  0  0  0  0  0
  -32.6328  156.9144    4.5279 H   0  0  0  0  0  0  0  0  0  0  0  0
  -33.5124  158.4806    4.5279 H   0  0  0  0  0  0  0  0  0  0  0  0
  -36.2429  155.6995    5.8194 H   0  0  0  0  0  0  0  0  0  0  0  0
  1  2  1  0
  2  3  1  0
  3  4  1  0
  4  5  2  0
  4  6  1  0
  6  7  1  0
  7  8  1  0
  8  9  2  0
  9 10  1  0
 10 11  1  0
 11 12  2  0
 11 13  1  0
 13 14  1  0
 14 15  2  0
 15 16  1  0
 16 17  2  0
 17 18  1  0
 18 19  2  0
  9 20  1  0
 20 21  1  0
 20 22  2  0
 22 23  1  0
 23 24  1  0
  6 25  2  0
 25 26  1  0
 26 27  2  0
 27 28  1  0
 28 29  2  0
 29 30  1  0
 30 31  1  0
 29 32  1  0
 32 33  2  0
 33  3  1  0
 23  7  2  0
 33 26  1  0
 19 14  1  0
  1 34  1  0
  1 35  1  0
  1 36  1  0
  2 37  1  0
  2 38  1  0
  8 39  1  0
 10 40  1  0
 13 41  1  0
 15 42  1  0
 16 43  1  0
 17 44  1  0
 18 45  1  0
 19 46  1  0
 22 47  1  0
 25 48  1  0
 27 49  1  0
 30 50  1  0
 31 51  1  0
 31 52  1  0
 31 53  1  0
 32 54  1  0
M  END
>  <meeko>  (10) 
{"is_sidechain": false}

>  <vina_affinity_kcal_mol>  (10) 
-7.653

>  <pose_rank>  (10) 
10

$$$$
