
     RDKit          3D

 48 50  0  0  0  0  0  0  0  0999 V2000
    9.8123    0.9953    1.5079 C   0  0  0  0  0  0  0  0  0  0  0  0
    8.5333    0.3426    1.4513 N   0  0  0  0  0  0  0  0  0  0  0  0
    7.7019    0.4360    0.3553 C   0  0  0  0  0  0  0  0  0  0  0  0
    8.0030    0.9955   -0.6924 O   0  0  0  0  0  0  0  0  0  0  0  0
    6.3582   -0.2006    0.5466 C   0  0  0  0  0  0  0  0  0  0  0  0
    5.4514   -0.2210   -0.5004 C   0  0  0  0  0  0  0  0  0  0  0  0
    4.2139   -0.8046   -0.2645 C   0  0  0  0  0  0  0  0  0  0  0  0
    3.3309   -0.8506   -1.3196 O   0  0  0  0  0  0  0  0  0  0  0  0
    2.0286   -0.4960   -1.0559 C   0  0  0  0  0  0  0  0  0  0  0  0
    1.0272   -1.3683   -1.4733 C   0  0  0  0  0  0  0  0  0  0  0  0
   -0.3174   -1.0460   -1.2587 C   0  0  0  0  0  0  0  0  0  0  0  0
   -0.6688    0.1600   -0.6474 C   0  0  0  0  0  0  0  0  0  0  0  0
   -1.9980    0.5570   -0.3888 N   0  0  0  0  0  0  0  0  0  0  0  0
   -3.1647   -0.0738   -0.7989 C   0  0  0  0  0  0  0  0  0  0  0  0
   -3.2157   -1.0536   -1.5293 O   0  0  0  0  0  0  0  0  0  0  0  0
   -4.2709    0.5672   -0.2547 N   0  0  0  0  0  0  0  0  0  0  0  0
   -5.6303    0.2959   -0.5135 C   0  0  0  0  0  0  0  0  0  0  0  0
   -6.0778   -0.5619   -1.5162 C   0  0  0  0  0  0  0  0  0  0  0  0
   -7.4470   -0.7684   -1.7125 C   0  0  0  0  0  0  0  0  0  0  0  0
   -8.3856   -0.1152   -0.9114 C   0  0  0  0  0  0  0  0  0  0  0  0
  -10.0546   -0.4249   -1.2194 Cl  0  0  0  0  0  0  0  0  0  0  0  0
   -7.9641    0.7568    0.0961 C   0  0  0  0  0  0  0  0  0  0  0  0
   -8.9491    1.4791    0.9740 C   0  0  0  0  0  0  0  0  0  0  0  0
   -9.7844    2.2990    0.2801 F   0  0  0  0  0  0  0  0  0  0  0  0
   -9.7386    0.6399    1.6977 F   0  0  0  0  0  0  0  0  0  0  0  0
   -8.3423    2.2843    1.8964 F   0  0  0  0  0  0  0  0  0  0  0  0
   -6.5788    0.9542    0.2812 C   0  0  0  0  0  0  0  0  0  0  0  0
    0.3489    1.0386   -0.2486 C   0  0  0  0  0  0  0  0  0  0  0  0
    1.6935    0.7183   -0.4585 C   0  0  0  0  0  0  0  0  0  0  0  0
    3.9331   -1.3764    0.9749 C   0  0  0  0  0  0  0  0  0  0  0  0
    4.9049   -1.3075    1.9579 C   0  0  0  0  0  0  0  0  0  0  0  0
    6.1109   -0.7270    1.7822 N   0  0  0  0  0  0  0  0  0  0  0  0
   10.4387    0.4707    2.2328 H   0  0  0  0  0  0  0  0  0  0  0  0
   10.2909    0.9883    0.5252 H   0  0  0  0  0  0  0  0  0  0  0  0
    9.6607    2.0284    1.8311 H   0  0  0  0  0  0  0  0  0  0  0  0
    8.1207   -0.0591    2.2897 H   0  0  0  0  0  0  0  0  0  0  0  0
    5.6982    0.2069   -1.4658 H   0  0  0  0  0  0  0  0  0  0  0  0
    1.2858   -2.3036   -1.9627 H   0  0  0  0  0  0  0  0  0  0  0  0
   -1.0656   -1.7619   -1.5846 H   0  0  0  0  0  0  0  0  0  0  0  0
   -2.1094    1.4694    0.0250 H   0  0  0  0  0  0  0  0  0  0  0  0
   -4.0797    1.1970    0.5093 H   0  0  0  0  0  0  0  0  0  0  0  0
   -5.3885   -1.0849   -2.1731 H   0  0  0  0  0  0  0  0  0  0  0  0
   -7.7705   -1.4451   -2.5010 H   0  0  0  0  0  0  0  0  0  0  0  0
   -6.2465    1.6337    1.0654 H   0  0  0  0  0  0  0  0  0  0  0  0
    0.1128    1.9895    0.2219 H   0  0  0  0  0  0  0  0  0  0  0  0
    2.4667    1.4225   -0.1645 H   0  0  0  0  0  0  0  0  0  0  0  0
    2.9887   -1.8713    1.1721 H   0  0  0  0  0  0  0  0  0  0  0  0
    4.7332   -1.7361    2.9418 H   0  0  0  0  0  0  0  0  0  0  0  0
  1  2  1  0
  2  3  1  0
  3  4  2  0
  3  5  1  0
  5  6  2  0
  6  7  1  0
  7  8  1  0
  8  9  1  0
  9 10  1  0
 10 11  2  0
 11 12  1  0
 12 13  1  0
 13 14  1  0
 14 15  2  0
 14 16  1  0
 16 17  1  0
 17 18  1  0
 18 19  2  0
 19 20  1  0
 20 21  1  0
 20 22  2  0
 22 23  1  0
 23 24  1  0
 23 25  1  0
 23 26  1  0
 22 27  1  0
 12 28  2  0
 28 29  1  0
  7 30  2  0
 30 31  1  0
 31 32  2  0
 32  5  1  0
 29  9  2  0
 27 17  2  0
  1 33  1  0
  1 34  1  0
  1 35  1  0
  2 36  1  0
  6 37  1  0
 10 38  1  0
 11 39  1  0
 13 40  1  0
 16 41  1  0
 18 42  1  0
 19 43  1  0
 27 44  1  0
 28 45  1  0
 29 46  1  0
 30 47  1  0
 31 48  1  0
M  END
$$$$
