
     RDKit          3D

 48 50  0  0  0  0  0  0  0  0999 V2000
  -38.1260  165.0810   -7.1100 C   0  0  0  0  0  0  0  0  0  0  0  0
  -38.4760  164.0260   -6.2000 N   0  0  0  0  0  0  0  0  0  0  0  0
  -38.2530  164.1140   -4.8420 C   0  0  0  0  0  0  0  0  0  0  0  0
  -37.8290  165.1150   -4.2780 O   0  0  0  0  0  0  0  0  0  0  0  0
  -38.5610  162.8570   -4.0850 C   0  0  0  0  0  0  0  0  0  0  0  0
  -39.2900  162.9230   -2.9090 C   0  0  0  0  0  0  0  0  0  0  0  0
  -39.5310  161.7340   -2.2360 C   0  0  0  0  0  0  0  0  0  0  0  0
  -40.2840  161.8040   -1.0860 O   0  0  0  0  0  0  0  0  0  0  0  0
  -40.0640  160.8320   -0.1390 C   0  0  0  0  0  0  0  0  0  0  0  0
  -41.1610  160.0890    0.2880 C   0  0  0  0  0  0  0  0  0  0  0  0
  -41.0040  159.1060    1.2710 C   0  0  0  0  0  0  0  0  0  0  0  0
  -39.7530  158.8760    1.8500 C   0  0  0  0  0  0  0  0  0  0  0  0
  -39.5080  157.9020    2.8410 N   0  0  0  0  0  0  0  0  0  0  0  0
  -38.3070  157.2650    3.1240 C   0  0  0  0  0  0  0  0  0  0  0  0
  -37.2710  157.4030    2.4880 O   0  0  0  0  0  0  0  0  0  0  0  0
  -38.4500  156.4500    4.2390 N   0  0  0  0  0  0  0  0  0  0  0  0
  -37.4960  155.5630    4.7780 C   0  0  0  0  0  0  0  0  0  0  0  0
  -37.5770  154.1750    4.6810 C   0  0  0  0  0  0  0  0  0  0  0  0
  -36.5900  153.3670    5.2540 C   0  0  0  0  0  0  0  0  0  0  0  0
  -35.5120  153.9350    5.9350 C   0  0  0  0  0  0  0  0  0  0  0  0
  -34.3390  152.8670    6.6120 Cl  0  0  0  0  0  0  0  0  0  0  0  0
  -35.4110  155.3240    6.0550 C   0  0  0  0  0  0  0  0  0  0  0  0
  -34.2650  155.9690    6.7850 C   0  0  0  0  0  0  0  0  0  0  0  0
  -34.1710  155.5780    8.0850 F   0  0  0  0  0  0  0  0  0  0  0  0
  -33.0550  155.7180    6.2140 F   0  0  0  0  0  0  0  0  0  0  0  0
  -34.3660  157.3300    6.8270 F   0  0  0  0  0  0  0  0  0  0  0  0
  -36.4150  156.1260    5.4710 C   0  0  0  0  0  0  0  0  0  0  0  0
  -38.6590  159.6440    1.4250 C   0  0  0  0  0  0  0  0  0  0  0  0
  -38.8130  160.6240    0.4410 C   0  0  0  0  0  0  0  0  0  0  0  0
  -39.0790  160.5260   -2.7650 C   0  0  0  0  0  0  0  0  0  0  0  0
  -38.3610  160.5620   -3.9480 C   0  0  0  0  0  0  0  0  0  0  0  0
  -38.0800  161.6970   -4.6220 N   0  0  0  0  0  0  0  0  0  0  0  0
  -37.8298  165.9738   -6.5398 H   0  0  0  0  0  0  0  0  0  0  0  0
  -37.2876  164.7557   -7.7435 H   0  0  0  0  0  0  0  0  0  0  0  0
  -38.9926  165.3213   -7.7435 H   0  0  0  0  0  0  0  0  0  0  0  0
  -38.7320  163.1050   -6.5500 H   0  0  0  0  0  0  0  0  0  0  0  0
  -39.6640  163.8827   -2.5230 H   0  0  0  0  0  0  0  0  0  0  0  0
  -42.1534  160.2752   -0.1484 H   0  0  0  0  0  0  0  0  0  0  0  0
  -41.8715  158.5098    1.5905 H   0  0  0  0  0  0  0  0  0  0  0  0
  -40.3240  157.5350    3.3040 H   0  0  0  0  0  0  0  0  0  0  0  0
  -39.2720  156.6150    4.8000 H   0  0  0  0  0  0  0  0  0  0  0  0
  -38.4224  153.7124    4.1506 H   0  0  0  0  0  0  0  0  0  0  0  0
  -36.6638  152.2729    5.1672 H   0  0  0  0  0  0  0  0  0  0  0  0
  -36.3476  157.2202    5.5619 H   0  0  0  0  0  0  0  0  0  0  0  0
  -37.6684  159.4728    1.8715 H   0  0  0  0  0  0  0  0  0  0  0  0
  -37.9505  161.2292    0.1250 H   0  0  0  0  0  0  0  0  0  0  0  0
  -39.2867  159.5725   -2.2574 H   0  0  0  0  0  0  0  0  0  0  0  0
  -37.9983  159.6100   -4.3629 H   0  0  0  0  0  0  0  0  0  0  0  0
  1  2  1  0
  2  3  1  0
  3  4  2  0
  3  5  1  0
  5  6  2  0
  6  7  1  0
  7  8  1  0
  8  9  1  0
  9 10  1  0
 10 11  2  0
 11 12  1  0
 12 13  1  0
 13 14  1  0
 14 15  2  0
 14 16  1  0
 16 17  1  0
 17 18  1  0
 18 19  2  0
 19 20  1  0
 20 21  1  0
 20 22  2  0
 22 23  1  0
 23 24  1  0
 23 25  1  0
 23 26  1  0
 22 27  1  0
 12 28  2  0
 28 29  1  0
  7 30  2  0
 30 31  1  0
 31 32  2  0
 32  5  1  0
 29  9  2  0
 27 17  2  0
  1 33  1  0
  1 34  1  0
  1 35  1  0
  2 36  1  0
  6 37  1  0
 10 38  1  0
 11 39  1  0
 13 40  1  0
 16 41  1  0
 18 42  1  0
 19 43  1  0
 27 44  1  0
 28 45  1  0
 29 46  1  0
 30 47  1  0
 31 48  1  0
M  END
>  <meeko>  (1) 
{"is_sidechain": false}

>  <vina_affinity_kcal_mol>  (1) 
-11.148

>  <pose_rank>  (1) 
1

$$$$

     RDKit          3D

 48 50  0  0  0  0  0  0  0  0999 V2000
  -35.6720  168.1890  -11.3400 C   0  0  0  0  0  0  0  0  0  0  0  0
  -36.1010  166.8360  -11.1140 N   0  0  0  0  0  0  0  0  0  0  0  0
  -37.4180  166.4480  -11.2320 C   0  0  0  0  0  0  0  0  0  0  0  0
  -38.3210  167.1800  -11.6200 O   0  0  0  0  0  0  0  0  0  0  0  0
  -37.6790  165.0290  -10.8230 C   0  0  0  0  0  0  0  0  0  0  0  0
  -36.9350  164.4590   -9.8020 C   0  0  0  0  0  0  0  0  0  0  0  0
  -37.2020  163.1370   -9.4750 C   0  0  0  0  0  0  0  0  0  0  0  0
  -36.4810  162.5890   -8.4380 O   0  0  0  0  0  0  0  0  0  0  0  0
  -37.1010  162.5360   -7.2120 C   0  0  0  0  0  0  0  0  0  0  0  0
  -37.8180  161.3830   -6.9030 C   0  0  0  0  0  0  0  0  0  0  0  0
  -38.4940  161.2830   -5.6830 C   0  0  0  0  0  0  0  0  0  0  0  0
  -38.4760  162.3430   -4.7730 C   0  0  0  0  0  0  0  0  0  0  0  0
  -39.1250  162.3210   -3.5200 N   0  0  0  0  0  0  0  0  0  0  0  0
  -39.3540  161.2200   -2.7050 C   0  0  0  0  0  0  0  0  0  0  0  0
  -39.0870  160.0620   -2.9940 O   0  0  0  0  0  0  0  0  0  0  0  0
  -39.9290  161.6250   -1.5070 N   0  0  0  0  0  0  0  0  0  0  0  0
  -40.4050  160.8030   -0.4650 C   0  0  0  0  0  0  0  0  0  0  0  0
  -41.7490  160.6740   -0.1250 C   0  0  0  0  0  0  0  0  0  0  0  0
  -42.1360  159.8420    0.9310 C   0  0  0  0  0  0  0  0  0  0  0  0
  -41.1820  159.1310    1.6620 C   0  0  0  0  0  0  0  0  0  0  0  0
  -41.7430  158.1270    2.9480 Cl  0  0  0  0  0  0  0  0  0  0  0  0
  -39.8260  159.2490    1.3460 C   0  0  0  0  0  0  0  0  0  0  0  0
  -38.7720  158.5000    2.1160 C   0  0  0  0  0  0  0  0  0  0  0  0
  -37.5430  158.5580    1.5350 F   0  0  0  0  0  0  0  0  0  0  0  0
  -38.6220  158.9450    3.3930 F   0  0  0  0  0  0  0  0  0  0  0  0
  -39.0510  157.1680    2.2310 F   0  0  0  0  0  0  0  0  0  0  0  0
  -39.4520  160.0920    0.2780 C   0  0  0  0  0  0  0  0  0  0  0  0
  -37.7650  163.5070   -5.1030 C   0  0  0  0  0  0  0  0  0  0  0  0
  -37.0860  163.6080   -6.3210 C   0  0  0  0  0  0  0  0  0  0  0  0
  -38.2120  162.4420  -10.1380 C   0  0  0  0  0  0  0  0  0  0  0  0
  -38.9020  163.0970  -11.1420 C   0  0  0  0  0  0  0  0  0  0  0  0
  -38.6590  164.3730  -11.5110 N   0  0  0  0  0  0  0  0  0  0  0  0
  -35.5133  168.6896  -10.3735 H   0  0  0  0  0  0  0  0  0  0  0  0
  -34.7311  168.1850  -11.9098 H   0  0  0  0  0  0  0  0  0  0  0  0
  -36.4433  168.7279  -11.9098 H   0  0  0  0  0  0  0  0  0  0  0  0
  -35.4740  166.1610  -10.6830 H   0  0  0  0  0  0  0  0  0  0  0  0
  -36.1617  165.0331   -9.2706 H   0  0  0  0  0  0  0  0  0  0  0  0
  -37.8527  160.5494   -7.6199 H   0  0  0  0  0  0  0  0  0  0  0  0
  -39.0442  160.3626   -5.4378 H   0  0  0  0  0  0  0  0  0  0  0  0
  -39.5870  163.1750   -3.2530 H   0  0  0  0  0  0  0  0  0  0  0  0
  -39.8700  162.6120   -1.3040 H   0  0  0  0  0  0  0  0  0  0  0  0
  -42.5115  161.2299   -0.6904 H   0  0  0  0  0  0  0  0  0  0  0  0
  -43.2014  159.7470    1.1878 H   0  0  0  0  0  0  0  0  0  0  0  0
  -38.3870  160.1938    0.0222 H   0  0  0  0  0  0  0  0  0  0  0  0
  -37.7416  164.3491   -4.3957 H   0  0  0  0  0  0  0  0  0  0  0  0
  -36.5421  164.5297   -6.5752 H   0  0  0  0  0  0  0  0  0  0  0  0
  -38.4534  161.4027   -9.8705 H   0  0  0  0  0  0  0  0  0  0  0  0
  -39.6944  162.5467  -11.6704 H   0  0  0  0  0  0  0  0  0  0  0  0
  1  2  1  0
  2  3  1  0
  3  4  2  0
  3  5  1  0
  5  6  2  0
  6  7  1  0
  7  8  1  0
  8  9  1  0
  9 10  1  0
 10 11  2  0
 11 12  1  0
 12 13  1  0
 13 14  1  0
 14 15  2  0
 14 16  1  0
 16 17  1  0
 17 18  1  0
 18 19  2  0
 19 20  1  0
 20 21  1  0
 20 22  2  0
 22 23  1  0
 23 24  1  0
 23 25  1  0
 23 26  1  0
 22 27  1  0
 12 28  2  0
 28 29  1  0
  7 30  2  0
 30 31  1  0
 31 32  2  0
 32  5  1  0
 29  9  2  0
 27 17  2  0
  1 33  1  0
  1 34  1  0
  1 35  1  0
  2 36  1  0
  6 37  1  0
 10 38  1  0
 11 39  1  0
 13 40  1  0
 16 41  1  0
 18 42  1  0
 19 43  1  0
 27 44  1  0
 28 45  1  0
 29 46  1  0
 30 47  1  0
 31 48  1  0
M  END
>  <meeko>  (2) 
{"is_sidechain": false}

>  <vina_affinity_kcal_mol>  (2) 
-10.523

>  <pose_rank>  (2) 
2

$$$$

     RDKit          3D

 48 50  0  0  0  0  0  0  0  0999 V2000
  -38.0730  164.3570   -7.5640 C   0  0  0  0  0  0  0  0  0  0  0  0
  -38.4120  163.8700   -6.2560 N   0  0  0  0  0  0  0  0  0  0  0  0
  -38.3810  164.6720   -5.1350 C   0  0  0  0  0  0  0  0  0  0  0  0
  -38.1540  165.8760   -5.1560 O   0  0  0  0  0  0  0  0  0  0  0  0
  -38.6350  163.9430   -3.8500 C   0  0  0  0  0  0  0  0  0  0  0  0
  -39.1000  162.6380   -3.8800 C   0  0  0  0  0  0  0  0  0  0  0  0
  -39.3380  162.0140   -2.6630 C   0  0  0  0  0  0  0  0  0  0  0  0
  -39.7680  160.7070   -2.7020 O   0  0  0  0  0  0  0  0  0  0  0  0
  -39.6300  159.9740   -1.5460 C   0  0  0  0  0  0  0  0  0  0  0  0
  -38.6100  159.0290   -1.5010 C   0  0  0  0  0  0  0  0  0  0  0  0
  -38.4400  158.2330   -0.3640 C   0  0  0  0  0  0  0  0  0  0  0  0
  -39.3040  158.3610    0.7270 C   0  0  0  0  0  0  0  0  0  0  0  0
  -39.1990  157.6030    1.9120 N   0  0  0  0  0  0  0  0  0  0  0  0
  -38.0870  157.4630    2.7320 C   0  0  0  0  0  0  0  0  0  0  0  0
  -36.9800  157.9290    2.5010 O   0  0  0  0  0  0  0  0  0  0  0  0
  -38.4140  156.7190    3.8580 N   0  0  0  0  0  0  0  0  0  0  0  0
  -37.5420  156.2720    4.8720 C   0  0  0  0  0  0  0  0  0  0  0  0
  -37.9350  155.4750    5.9450 C   0  0  0  0  0  0  0  0  0  0  0  0
  -37.0050  155.0830    6.9130 C   0  0  0  0  0  0  0  0  0  0  0  0
  -35.6720  155.4880    6.8240 C   0  0  0  0  0  0  0  0  0  0  0  0
  -34.5910  154.9600    8.0600 Cl  0  0  0  0  0  0  0  0  0  0  0  0
  -35.2530  156.2940    5.7620 C   0  0  0  0  0  0  0  0  0  0  0  0
  -33.8250  156.7500    5.6380 C   0  0  0  0  0  0  0  0  0  0  0  0
  -33.4120  157.5090    6.6890 F   0  0  0  0  0  0  0  0  0  0  0  0
  -32.9400  155.7220    5.5280 F   0  0  0  0  0  0  0  0  0  0  0  0
  -33.6140  157.5250    4.5320 F   0  0  0  0  0  0  0  0  0  0  0  0
  -36.2030  156.6810    4.7930 C   0  0  0  0  0  0  0  0  0  0  0  0
  -40.3410  159.3040    0.6620 C   0  0  0  0  0  0  0  0  0  0  0  0
  -40.5100  160.1030   -0.4720 C   0  0  0  0  0  0  0  0  0  0  0  0
  -39.0760  162.6840   -1.4690 C   0  0  0  0  0  0  0  0  0  0  0  0
  -38.6110  163.9860   -1.5420 C   0  0  0  0  0  0  0  0  0  0  0  0
  -38.3910  164.6400   -2.7020 N   0  0  0  0  0  0  0  0  0  0  0  0
  -37.4469  165.2565   -7.4695 H   0  0  0  0  0  0  0  0  0  0  0  0
  -37.5191  163.5806   -8.1121 H   0  0  0  0  0  0  0  0  0  0  0  0
  -38.9934  164.6069   -8.1121 H   0  0  0  0  0  0  0  0  0  0  0  0
  -38.5110  162.8720   -6.0860 H   0  0  0  0  0  0  0  0  0  0  0  0
  -39.2740  162.1160   -4.8325 H   0  0  0  0  0  0  0  0  0  0  0  0
  -37.9358  158.9077   -2.3617 H   0  0  0  0  0  0  0  0  0  0  0  0
  -37.6201  157.5006   -0.3280 H   0  0  0  0  0  0  0  0  0  0  0  0
  -39.9760  156.9930    2.1110 H   0  0  0  0  0  0  0  0  0  0  0  0
  -39.4000  156.6080    4.0380 H   0  0  0  0  0  0  0  0  0  0  0  0
  -38.9830  155.1522    6.0313 H   0  0  0  0  0  0  0  0  0  0  0  0
  -37.3269  154.4494    7.7526 H   0  0  0  0  0  0  0  0  0  0  0  0
  -35.8854  157.3191    3.9552 H   0  0  0  0  0  0  0  0  0  0  0  0
  -41.0287  159.4156    1.5133 H   0  0  0  0  0  0  0  0  0  0  0  0
  -41.3337  160.8306   -0.5172 H   0  0  0  0  0  0  0  0  0  0  0  0
  -39.2340  162.1928   -0.4976 H   0  0  0  0  0  0  0  0  0  0  0  0
  -38.4093  164.5180   -0.6006 H   0  0  0  0  0  0  0  0  0  0  0  0
  1  2  1  0
  2  3  1  0
  3  4  2  0
  3  5  1  0
  5  6  2  0
  6  7  1  0
  7  8  1  0
  8  9  1  0
  9 10  1  0
 10 11  2  0
 11 12  1  0
 12 13  1  0
 13 14  1  0
 14 15  2  0
 14 16  1  0
 16 17  1  0
 17 18  1  0
 18 19  2  0
 19 20  1  0
 20 21  1  0
 20 22  2  0
 22 23  1  0
 23 24  1  0
 23 25  1  0
 23 26  1  0
 22 27  1  0
 12 28  2  0
 28 29  1  0
  7 30  2  0
 30 31  1  0
 31 32  2  0
 32  5  1  0
 29  9  2  0
 27 17  2  0
  1 33  1  0
  1 34  1  0
  1 35  1  0
  2 36  1  0
  6 37  1  0
 10 38  1  0
 11 39  1  0
 13 40  1  0
 16 41  1  0
 18 42  1  0
 19 43  1  0
 27 44  1  0
 28 45  1  0
 29 46  1  0
 30 47  1  0
 31 48  1  0
M  END
>  <meeko>  (3) 
{"is_sidechain": false}

>  <vina_affinity_kcal_mol>  (3) 
-10.523

>  <pose_rank>  (3) 
3

$$$$

     RDKit          3D

 48 50  0  0  0  0  0  0  0  0999 V2000
  -38.0980  164.7750   -6.5460 C   0  0  0  0  0  0  0  0  0  0  0  0
  -38.5090  163.7020   -5.6820 N   0  0  0  0  0  0  0  0  0  0  0  0
  -38.4050  163.7750   -4.3090 C   0  0  0  0  0  0  0  0  0  0  0  0
  -38.0450  164.7740   -3.6980 O   0  0  0  0  0  0  0  0  0  0  0  0
  -38.7580  162.5030   -3.5980 C   0  0  0  0  0  0  0  0  0  0  0  0
  -39.4440  162.5560   -2.3960 C   0  0  0  0  0  0  0  0  0  0  0  0
  -39.7290  161.3520   -1.7670 C   0  0  0  0  0  0  0  0  0  0  0  0
  -40.4410  161.4100   -0.5910 O   0  0  0  0  0  0  0  0  0  0  0  0
  -40.1560  160.4540    0.3560 C   0  0  0  0  0  0  0  0  0  0  0  0
  -38.8150  160.1850    0.6150 C   0  0  0  0  0  0  0  0  0  0  0  0
  -38.4650  159.2020    1.5460 C   0  0  0  0  0  0  0  0  0  0  0  0
  -39.4520  158.4660    2.2070 C   0  0  0  0  0  0  0  0  0  0  0  0
  -39.1830  157.4630    3.1620 N   0  0  0  0  0  0  0  0  0  0  0  0
  -37.9490  156.9250    3.5010 C   0  0  0  0  0  0  0  0  0  0  0  0
  -36.8890  157.1950    2.9540 O   0  0  0  0  0  0  0  0  0  0  0  0
  -38.0900  156.0370    4.5600 N   0  0  0  0  0  0  0  0  0  0  0  0
  -37.0940  155.2130    5.1230 C   0  0  0  0  0  0  0  0  0  0  0  0
  -35.8940  155.6860    5.6490 C   0  0  0  0  0  0  0  0  0  0  0  0
  -34.9550  154.7980    6.1820 C   0  0  0  0  0  0  0  0  0  0  0  0
  -35.2020  153.4240    6.1910 C   0  0  0  0  0  0  0  0  0  0  0  0
  -33.9910  152.3970    6.8670 Cl  0  0  0  0  0  0  0  0  0  0  0  0
  -36.3940  152.9210    5.6630 C   0  0  0  0  0  0  0  0  0  0  0  0
  -36.6900  151.4470    5.6550 C   0  0  0  0  0  0  0  0  0  0  0  0
  -35.7220  150.7100    5.0450 F   0  0  0  0  0  0  0  0  0  0  0  0
  -36.8520  150.9240    6.9010 F   0  0  0  0  0  0  0  0  0  0  0  0
  -37.8430  151.1440    4.9870 F   0  0  0  0  0  0  0  0  0  0  0  0
  -37.3320  153.8310    5.1300 C   0  0  0  0  0  0  0  0  0  0  0  0
  -40.7990  158.7330    1.9220 C   0  0  0  0  0  0  0  0  0  0  0  0
  -41.1520  159.7170    0.9950 C   0  0  0  0  0  0  0  0  0  0  0  0
  -39.3610  160.1460   -2.3630 C   0  0  0  0  0  0  0  0  0  0  0  0
  -38.6800  160.1970   -3.5660 C   0  0  0  0  0  0  0  0  0  0  0  0
  -38.3580  161.3450   -4.1990 N   0  0  0  0  0  0  0  0  0  0  0  0
  -37.7702  165.6307   -5.9375 H   0  0  0  0  0  0  0  0  0  0  0  0
  -37.2659  164.4364   -7.1808 H   0  0  0  0  0  0  0  0  0  0  0  0
  -38.9434  165.0789   -7.1808 H   0  0  0  0  0  0  0  0  0  0  0  0
  -38.7210  162.7840   -6.0650 H   0  0  0  0  0  0  0  0  0  0  0  0
  -39.7514  163.5163   -1.9563 H   0  0  0  0  0  0  0  0  0  0  0  0
  -38.0300  160.7461    0.0869 H   0  0  0  0  0  0  0  0  0  0  0  0
  -37.4038  159.0065    1.7598 H   0  0  0  0  0  0  0  0  0  0  0  0
  -39.9910  156.9950    3.5430 H   0  0  0  0  0  0  0  0  0  0  0  0
  -38.9610  156.0920    5.0650 H   0  0  0  0  0  0  0  0  0  0  0  0
  -35.6838  156.7657    5.6449 H   0  0  0  0  0  0  0  0  0  0  0  0
  -34.0132  155.1853    6.5980 H   0  0  0  0  0  0  0  0  0  0  0  0
  -38.2731  153.4467    4.7097 H   0  0  0  0  0  0  0  0  0  0  0  0
  -41.5867  158.1611    2.4342 H   0  0  0  0  0  0  0  0  0  0  0  0
  -42.2115  159.9094    0.7703 H   0  0  0  0  0  0  0  0  0  0  0  0
  -39.6050  159.1830   -1.8906 H   0  0  0  0  0  0  0  0  0  0  0  0
  -38.3836  159.2467   -4.0341 H   0  0  0  0  0  0  0  0  0  0  0  0
  1  2  1  0
  2  3  1  0
  3  4  2  0
  3  5  1  0
  5  6  2  0
  6  7  1  0
  7  8  1  0
  8  9  1  0
  9 10  1  0
 10 11  2  0
 11 12  1  0
 12 13  1  0
 13 14  1  0
 14 15  2  0
 14 16  1  0
 16 17  1  0
 17 18  1  0
 18 19  2  0
 19 20  1  0
 20 21  1  0
 20 22  2  0
 22 23  1  0
 23 24  1  0
 23 25  1  0
 23 26  1  0
 22 27  1  0
 12 28  2  0
 28 29  1  0
  7 30  2  0
 30 31  1  0
 31 32  2  0
 32  5  1  0
 29  9  2  0
 27 17  2  0
  1 33  1  0
  1 34  1  0
  1 35  1  0
  2 36  1  0
  6 37  1  0
 10 38  1  0
 11 39  1  0
 13 40  1  0
 16 41  1  0
 18 42  1  0
 19 43  1  0
 27 44  1  0
 28 45  1  0
 29 46  1  0
 30 47  1  0
 31 48  1  0
M  END
>  <meeko>  (4) 
{"is_sidechain": false}

>  <vina_affinity_kcal_mol>  (4) 
-10.51

>  <pose_rank>  (4) 
4

$$$$

     RDKit          3D

 48 50  0  0  0  0  0  0  0  0999 V2000
  -33.7370  152.6370    5.1800 C   0  0  0  0  0  0  0  0  0  0  0  0
  -34.2630  153.9670    5.0380 N   0  0  0  0  0  0  0  0  0  0  0  0
  -35.4880  154.3380    5.5500 C   0  0  0  0  0  0  0  0  0  0  0  0
  -36.1940  153.6140    6.2400 O   0  0  0  0  0  0  0  0  0  0  0  0
  -35.9140  155.7270    5.1780 C   0  0  0  0  0  0  0  0  0  0  0  0
  -37.2050  155.9530    4.7310 C   0  0  0  0  0  0  0  0  0  0  0  0
  -37.5440  157.2520    4.3800 C   0  0  0  0  0  0  0  0  0  0  0  0
  -38.8390  157.4740    3.9690 O   0  0  0  0  0  0  0  0  0  0  0  0
  -39.0080  158.0330    2.7240 C   0  0  0  0  0  0  0  0  0  0  0  0
  -40.1950  158.7190    2.4820 C   0  0  0  0  0  0  0  0  0  0  0  0
  -40.4360  159.2820    1.2240 C   0  0  0  0  0  0  0  0  0  0  0  0
  -39.5020  159.1450    0.1940 C   0  0  0  0  0  0  0  0  0  0  0  0
  -39.6650  159.6870   -1.0980 N   0  0  0  0  0  0  0  0  0  0  0  0
  -39.0460  160.8110   -1.6290 C   0  0  0  0  0  0  0  0  0  0  0  0
  -38.3030  161.5630   -1.0130 O   0  0  0  0  0  0  0  0  0  0  0  0
  -39.3880  160.9580   -2.9670 N   0  0  0  0  0  0  0  0  0  0  0  0
  -39.0510  162.0240   -3.8250 C   0  0  0  0  0  0  0  0  0  0  0  0
  -39.1330  163.3690   -3.4680 C   0  0  0  0  0  0  0  0  0  0  0  0
  -38.7870  164.3670   -4.3850 C   0  0  0  0  0  0  0  0  0  0  0  0
  -38.3590  164.0330   -5.6710 C   0  0  0  0  0  0  0  0  0  0  0  0
  -37.9510  165.3250   -6.7400 Cl  0  0  0  0  0  0  0  0  0  0  0  0
  -38.2750  162.6930   -6.0570 C   0  0  0  0  0  0  0  0  0  0  0  0
  -37.8200  162.2990   -7.4360 C   0  0  0  0  0  0  0  0  0  0  0  0
  -36.5420  162.6780   -7.7070 F   0  0  0  0  0  0  0  0  0  0  0  0
  -37.8860  160.9580   -7.6610 F   0  0  0  0  0  0  0  0  0  0  0  0
  -38.5780  162.8650   -8.4220 F   0  0  0  0  0  0  0  0  0  0  0  0
  -38.6270  161.6980   -5.1210 C   0  0  0  0  0  0  0  0  0  0  0  0
  -38.3180  158.4350    0.4450 C   0  0  0  0  0  0  0  0  0  0  0  0
  -38.0740  157.8740    1.7010 C   0  0  0  0  0  0  0  0  0  0  0  0
  -36.6130  158.2800    4.5170 C   0  0  0  0  0  0  0  0  0  0  0  0
  -35.3480  157.9550    4.9740 C   0  0  0  0  0  0  0  0  0  0  0  0
  -34.9670  156.7020    5.3020 N   0  0  0  0  0  0  0  0  0  0  0  0
  -33.6405  152.3930    6.2482 H   0  0  0  0  0  0  0  0  0  0  0  0
  -34.4192  151.9197    4.7002 H   0  0  0  0  0  0  0  0  0  0  0  0
  -32.7488  152.5804    4.7002 H   0  0  0  0  0  0  0  0  0  0  0  0
  -33.8280  154.6280    4.3980 H   0  0  0  0  0  0  0  0  0  0  0  0
  -37.9347  155.1332    4.6569 H   0  0  0  0  0  0  0  0  0  0  0  0
  -40.9445  158.8185    3.2810 H   0  0  0  0  0  0  0  0  0  0  0  0
  -41.3685  159.8371    1.0444 H   0  0  0  0  0  0  0  0  0  0  0  0
  -40.4110  159.2910   -1.6470 H   0  0  0  0  0  0  0  0  0  0  0  0
  -39.8020  160.1480   -3.4040 H   0  0  0  0  0  0  0  0  0  0  0  0
  -39.4718  163.6472   -2.4591 H   0  0  0  0  0  0  0  0  0  0  0  0
  -38.8528  165.4247   -4.0900 H   0  0  0  0  0  0  0  0  0  0  0  0
  -38.5673  160.6398   -5.4153 H   0  0  0  0  0  0  0  0  0  0  0  0
  -37.5734  158.3188   -0.3563 H   0  0  0  0  0  0  0  0  0  0  0  0
  -37.1480  157.3086    1.8823 H   0  0  0  0  0  0  0  0  0  0  0  0
  -36.8760  159.3189    4.2692 H   0  0  0  0  0  0  0  0  0  0  0  0
  -34.6101  158.7644    5.0760 H   0  0  0  0  0  0  0  0  0  0  0  0
  1  2  1  0
  2  3  1  0
  3  4  2  0
  3  5  1  0
  5  6  2  0
  6  7  1  0
  7  8  1  0
  8  9  1  0
  9 10  1  0
 10 11  2  0
 11 12  1  0
 12 13  1  0
 13 14  1  0
 14 15  2  0
 14 16  1  0
 16 17  1  0
 17 18  1  0
 18 19  2  0
 19 20  1  0
 20 21  1  0
 20 22  2  0
 22 23  1  0
 23 24  1  0
 23 25  1  0
 23 26  1  0
 22 27  1  0
 12 28  2  0
 28 29  1  0
  7 30  2  0
 30 31  1  0
 31 32  2  0
 32  5  1  0
 29  9  2  0
 27 17  2  0
  1 33  1  0
  1 34  1  0
  1 35  1  0
  2 36  1  0
  6 37  1  0
 10 38  1  0
 11 39  1  0
 13 40  1  0
 16 41  1  0
 18 42  1  0
 19 43  1  0
 27 44  1  0
 28 45  1  0
 29 46  1  0
 30 47  1  0
 31 48  1  0
M  END
>  <meeko>  (5) 
{"is_sidechain": false}

>  <vina_affinity_kcal_mol>  (5) 
-10.476

>  <pose_rank>  (5) 
5

$$$$

     RDKit          3D

 48 50  0  0  0  0  0  0  0  0999 V2000
  -37.7550  163.9060   -8.8260 C   0  0  0  0  0  0  0  0  0  0  0  0
  -38.1310  163.5560   -7.4840 N   0  0  0  0  0  0  0  0  0  0  0  0
  -38.1640  164.4770   -6.4600 C   0  0  0  0  0  0  0  0  0  0  0  0
  -37.9690  165.6780   -6.6060 O   0  0  0  0  0  0  0  0  0  0  0  0
  -38.4490  163.8870   -5.1110 C   0  0  0  0  0  0  0  0  0  0  0  0
  -38.7850  162.5470   -5.0040 C   0  0  0  0  0  0  0  0  0  0  0  0
  -39.0580  162.0540   -3.7360 C   0  0  0  0  0  0  0  0  0  0  0  0
  -39.3580  160.7150   -3.6340 O   0  0  0  0  0  0  0  0  0  0  0  0
  -39.3430  160.1690   -2.3720 C   0  0  0  0  0  0  0  0  0  0  0  0
  -38.6090  159.0000   -2.1850 C   0  0  0  0  0  0  0  0  0  0  0  0
  -38.5810  158.3830   -0.9310 C   0  0  0  0  0  0  0  0  0  0  0  0
  -39.3030  158.9170    0.1390 C   0  0  0  0  0  0  0  0  0  0  0  0
  -39.3230  158.3600    1.4360 N   0  0  0  0  0  0  0  0  0  0  0  0
  -38.2350  157.9840    2.2120 C   0  0  0  0  0  0  0  0  0  0  0  0
  -37.0680  158.0100    1.8480 O   0  0  0  0  0  0  0  0  0  0  0  0
  -38.6640  157.5770    3.4690 N   0  0  0  0  0  0  0  0  0  0  0  0
  -37.8800  157.0260    4.5040 C   0  0  0  0  0  0  0  0  0  0  0  0
  -37.1170  157.7800    5.3920 C   0  0  0  0  0  0  0  0  0  0  0  0
  -36.3590  157.1530    6.3850 C   0  0  0  0  0  0  0  0  0  0  0  0
  -36.3510  155.7610    6.5000 C   0  0  0  0  0  0  0  0  0  0  0  0
  -35.3890  155.0670    7.7530 Cl  0  0  0  0  0  0  0  0  0  0  0  0
  -37.1010  154.9800    5.6170 C   0  0  0  0  0  0  0  0  0  0  0  0
  -37.1120  153.4790    5.7110 C   0  0  0  0  0  0  0  0  0  0  0  0
  -37.5170  153.0210    6.9270 F   0  0  0  0  0  0  0  0  0  0  0  0
  -37.9160  152.8880    4.7850 F   0  0  0  0  0  0  0  0  0  0  0  0
  -35.8770  152.9290    5.5160 F   0  0  0  0  0  0  0  0  0  0  0  0
  -37.8610  155.6290    4.6200 C   0  0  0  0  0  0  0  0  0  0  0  0
  -40.0540  160.0840   -0.0660 C   0  0  0  0  0  0  0  0  0  0  0  0
  -40.0820  160.7040   -1.3180 C   0  0  0  0  0  0  0  0  0  0  0  0
  -38.9540  162.8870   -2.6230 C   0  0  0  0  0  0  0  0  0  0  0  0
  -38.6090  164.2110   -2.8310 C   0  0  0  0  0  0  0  0  0  0  0  0
  -38.3610  164.7400   -4.0490 N   0  0  0  0  0  0  0  0  0  0  0  0
  -36.9501  164.6552   -8.7977 H   0  0  0  0  0  0  0  0  0  0  0  0
  -37.4016  163.0080   -9.3538 H   0  0  0  0  0  0  0  0  0  0  0  0
  -38.6255  164.3228   -9.3538 H   0  0  0  0  0  0  0  0  0  0  0  0
  -38.2100  162.5800   -7.2080 H   0  0  0  0  0  0  0  0  0  0  0  0
  -38.8335  161.8983   -5.8911 H   0  0  0  0  0  0  0  0  0  0  0  0
  -38.0506  158.5618   -3.0253 H   0  0  0  0  0  0  0  0  0  0  0  0
  -37.9856  157.4696   -0.7856 H   0  0  0  0  0  0  0  0  0  0  0  0
  -40.2290  158.0850    1.7790 H   0  0  0  0  0  0  0  0  0  0  0  0
  -39.6080  157.8320    3.7140 H   0  0  0  0  0  0  0  0  0  0  0  0
  -37.1108  158.8770    5.3114 H   0  0  0  0  0  0  0  0  0  0  0  0
  -35.7636  157.7611    7.0819 H   0  0  0  0  0  0  0  0  0  0  0  0
  -38.4526  155.0240    3.9172 H   0  0  0  0  0  0  0  0  0  0  0  0
  -40.6270  160.5157    0.7678 H   0  0  0  0  0  0  0  0  0  0  0  0
  -40.6851  161.6111   -1.4713 H   0  0  0  0  0  0  0  0  0  0  0  0
  -39.1407  162.5032   -1.6092 H   0  0  0  0  0  0  0  0  0  0  0  0
  -38.5323  164.8706   -1.9540 H   0  0  0  0  0  0  0  0  0  0  0  0
  1  2  1  0
  2  3  1  0
  3  4  2  0
  3  5  1  0
  5  6  2  0
  6  7  1  0
  7  8  1  0
  8  9  1  0
  9 10  1  0
 10 11  2  0
 11 12  1  0
 12 13  1  0
 13 14  1  0
 14 15  2  0
 14 16  1  0
 16 17  1  0
 17 18  1  0
 18 19  2  0
 19 20  1  0
 20 21  1  0
 20 22  2  0
 22 23  1  0
 23 24  1  0
 23 25  1  0
 23 26  1  0
 22 27  1  0
 12 28  2  0
 28 29  1  0
  7 30  2  0
 30 31  1  0
 31 32  2  0
 32  5  1  0
 29  9  2  0
 27 17  2  0
  1 33  1  0
  1 34  1  0
  1 35  1  0
  2 36  1  0
  6 37  1  0
 10 38  1  0
 11 39  1  0
 13 40  1  0
 16 41  1  0
 18 42  1  0
 19 43  1  0
 27 44  1  0
 28 45  1  0
 29 46  1  0
 30 47  1  0
 31 48  1  0
M  END
>  <meeko>  (6) 
{"is_sidechain": false}

>  <vina_affinity_kcal_mol>  (6) 
-10.401

>  <pose_rank>  (6) 
6

$$$$

     RDKit          3D

 48 50  0  0  0  0  0  0  0  0999 V2000
  -37.8080  155.8650    5.0450 C   0  0  0  0  0  0  0  0  0  0  0  0
  -38.5720  156.6750    4.1370 N   0  0  0  0  0  0  0  0  0  0  0  0
  -37.9810  157.4980    3.2020 C   0  0  0  0  0  0  0  0  0  0  0  0
  -36.7750  157.5510    2.9940 O   0  0  0  0  0  0  0  0  0  0  0  0
  -38.9470  158.3600    2.4460 C   0  0  0  0  0  0  0  0  0  0  0  0
  -38.4900  159.4930    1.7920 C   0  0  0  0  0  0  0  0  0  0  0  0
  -39.4270  160.2690    1.1230 C   0  0  0  0  0  0  0  0  0  0  0  0
  -38.9610  161.3740    0.4480 O   0  0  0  0  0  0  0  0  0  0  0  0
  -38.9590  161.3080   -0.9250 C   0  0  0  0  0  0  0  0  0  0  0  0
  -38.4180  160.1690   -1.5140 C   0  0  0  0  0  0  0  0  0  0  0  0
  -38.3610  160.0590   -2.9070 C   0  0  0  0  0  0  0  0  0  0  0  0
  -38.8250  161.0960   -3.7200 C   0  0  0  0  0  0  0  0  0  0  0  0
  -38.8100  161.0620   -5.1310 N   0  0  0  0  0  0  0  0  0  0  0  0
  -38.0460  161.8420   -5.9890 C   0  0  0  0  0  0  0  0  0  0  0  0
  -37.3060  162.7520   -5.6420 O   0  0  0  0  0  0  0  0  0  0  0  0
  -38.2390  161.4350   -7.3030 N   0  0  0  0  0  0  0  0  0  0  0  0
  -37.7260  162.0380   -8.4690 C   0  0  0  0  0  0  0  0  0  0  0  0
  -37.0810  161.3430   -9.4890 C   0  0  0  0  0  0  0  0  0  0  0  0
  -36.5920  162.0210  -10.6100 C   0  0  0  0  0  0  0  0  0  0  0  0
  -36.7390  163.4050  -10.7230 C   0  0  0  0  0  0  0  0  0  0  0  0
  -36.1080  164.1640  -12.1380 Cl  0  0  0  0  0  0  0  0  0  0  0  0
  -37.3750  164.1280   -9.7110 C   0  0  0  0  0  0  0  0  0  0  0  0
  -37.5460  165.6200   -9.7990 C   0  0  0  0  0  0  0  0  0  0  0  0
  -38.2310  166.1440   -8.7470 F   0  0  0  0  0  0  0  0  0  0  0  0
  -36.3660  166.2930   -9.8700 F   0  0  0  0  0  0  0  0  0  0  0  0
  -38.2460  166.0050  -10.9080 F   0  0  0  0  0  0  0  0  0  0  0  0
  -37.8620  163.4290   -8.5860 C   0  0  0  0  0  0  0  0  0  0  0  0
  -39.3510  162.2470   -3.1150 C   0  0  0  0  0  0  0  0  0  0  0  0
  -39.4110  162.3580   -1.7230 C   0  0  0  0  0  0  0  0  0  0  0  0
  -40.7660  159.8800    1.0940 C   0  0  0  0  0  0  0  0  0  0  0  0
  -41.1250  158.7310    1.7750 C   0  0  0  0  0  0  0  0  0  0  0  0
  -40.2520  157.9610    2.4610 N   0  0  0  0  0  0  0  0  0  0  0  0
  -38.0627  156.1351    6.0805 H   0  0  0  0  0  0  0  0  0  0  0  0
  -38.0415  154.8036    4.8749 H   0  0  0  0  0  0  0  0  0  0  0  0
  -36.7348  156.0362    4.8749 H   0  0  0  0  0  0  0  0  0  0  0  0
  -39.5710  156.8040    4.2770 H   0  0  0  0  0  0  0  0  0  0  0  0
  -37.4248  159.7673    1.8025 H   0  0  0  0  0  0  0  0  0  0  0  0
  -38.0346  159.3538   -0.8827 H   0  0  0  0  0  0  0  0  0  0  0  0
  -37.9476  159.1489   -3.3661 H   0  0  0  0  0  0  0  0  0  0  0  0
  -39.5300  160.5030   -5.5620 H   0  0  0  0  0  0  0  0  0  0  0  0
  -38.6760  160.5340   -7.4230 H   0  0  0  0  0  0  0  0  0  0  0  0
  -36.9553  160.2529   -9.4123 H   0  0  0  0  0  0  0  0  0  0  0  0
  -36.0872  161.4592  -11.4097 H   0  0  0  0  0  0  0  0  0  0  0  0
  -38.3605  163.9889   -7.7810 H   0  0  0  0  0  0  0  0  0  0  0  0
  -39.7203  163.0712   -3.7429 H   0  0  0  0  0  0  0  0  0  0  0  0
  -39.8134  163.2705   -1.2588 H   0  0  0  0  0  0  0  0  0  0  0  0
  -41.5149  160.4700    0.5454 H   0  0  0  0  0  0  0  0  0  0  0  0
  -42.1819  158.4266    1.7571 H   0  0  0  0  0  0  0  0  0  0  0  0
  1  2  1  0
  2  3  1  0
  3  4  2  0
  3  5  1  0
  5  6  2  0
  6  7  1  0
  7  8  1  0
  8  9  1  0
  9 10  1  0
 10 11  2  0
 11 12  1  0
 12 13  1  0
 13 14  1  0
 14 15  2  0
 14 16  1  0
 16 17  1  0
 17 18  1  0
 18 19  2  0
 19 20  1  0
 20 21  1  0
 20 22  2  0
 22 23  1  0
 23 24  1  0
 23 25  1  0
 23 26  1  0
 22 27  1  0
 12 28  2  0
 28 29  1  0
  7 30  2  0
 30 31  1  0
 31 32  2  0
 32  5  1  0
 29  9  2  0
 27 17  2  0
  1 33  1  0
  1 34  1  0
  1 35  1  0
  2 36  1  0
  6 37  1  0
 10 38  1  0
 11 39  1  0
 13 40  1  0
 16 41  1  0
 18 42  1  0
 19 43  1  0
 27 44  1  0
 28 45  1  0
 29 46  1  0
 30 47  1  0
 31 48  1  0
M  END
>  <meeko>  (7) 
{"is_sidechain": false}

>  <vina_affinity_kcal_mol>  (7) 
-10.149

>  <pose_rank>  (7) 
7

$$$$

     RDKit          3D

 48 50  0  0  0  0  0  0  0  0999 V2000
  -34.7240  148.7160    2.4560 C   0  0  0  0  0  0  0  0  0  0  0  0
  -34.7770  149.3170    3.7600 N   0  0  0  0  0  0  0  0  0  0  0  0
  -34.7760  148.5710    4.9200 C   0  0  0  0  0  0  0  0  0  0  0  0
  -34.6410  147.3540    4.9560 O   0  0  0  0  0  0  0  0  0  0  0  0
  -34.9740  149.3780    6.1690 C   0  0  0  0  0  0  0  0  0  0  0  0
  -34.7870  150.7500    6.1380 C   0  0  0  0  0  0  0  0  0  0  0  0
  -34.9640  151.4470    7.3250 C   0  0  0  0  0  0  0  0  0  0  0  0
  -34.8100  152.8140    7.2780 O   0  0  0  0  0  0  0  0  0  0  0  0
  -35.5950  153.4980    6.3800 C   0  0  0  0  0  0  0  0  0  0  0  0
  -35.0860  154.6810    5.8500 C   0  0  0  0  0  0  0  0  0  0  0  0
  -35.8510  155.4350    4.9550 C   0  0  0  0  0  0  0  0  0  0  0  0
  -37.1390  155.0230    4.6010 C   0  0  0  0  0  0  0  0  0  0  0  0
  -37.9720  155.7210    3.7020 N   0  0  0  0  0  0  0  0  0  0  0  0
  -37.7030  156.9190    3.0530 C   0  0  0  0  0  0  0  0  0  0  0  0
  -36.7050  157.6050    3.2280 O   0  0  0  0  0  0  0  0  0  0  0  0
  -38.7310  157.2260    2.1700 N   0  0  0  0  0  0  0  0  0  0  0  0
  -38.8800  158.4020    1.4070 C   0  0  0  0  0  0  0  0  0  0  0  0
  -39.2170  159.6430    1.9420 C   0  0  0  0  0  0  0  0  0  0  0  0
  -39.3550  160.7590    1.1110 C   0  0  0  0  0  0  0  0  0  0  0  0
  -39.1610  160.6470   -0.2680 C   0  0  0  0  0  0  0  0  0  0  0  0
  -39.3490  162.0720   -1.2210 Cl  0  0  0  0  0  0  0  0  0  0  0  0
  -38.8300  159.4120   -0.8320 C   0  0  0  0  0  0  0  0  0  0  0  0
  -38.6180  159.2560   -2.3120 C   0  0  0  0  0  0  0  0  0  0  0  0
  -38.5830  157.9560   -2.7140 F   0  0  0  0  0  0  0  0  0  0  0  0
  -39.5750  159.8690   -3.0600 F   0  0  0  0  0  0  0  0  0  0  0  0
  -37.4350  159.7930   -2.7350 F   0  0  0  0  0  0  0  0  0  0  0  0
  -38.6950  158.2960    0.0210 C   0  0  0  0  0  0  0  0  0  0  0  0
  -37.6480  153.8410    5.1570 C   0  0  0  0  0  0  0  0  0  0  0  0
  -36.8840  153.0840    6.0490 C   0  0  0  0  0  0  0  0  0  0  0  0
  -35.3520  150.7740    8.4820 C   0  0  0  0  0  0  0  0  0  0  0  0
  -35.5160  149.4020    8.4120 C   0  0  0  0  0  0  0  0  0  0  0  0
  -35.3290  148.6800    7.2870 N   0  0  0  0  0  0  0  0  0  0  0  0
  -34.6278  147.6250    2.5587 H   0  0  0  0  0  0  0  0  0  0  0  0
  -35.6465  148.9525    1.9055 H   0  0  0  0  0  0  0  0  0  0  0  0
  -33.8571  149.1103    1.9055 H   0  0  0  0  0  0  0  0  0  0  0  0
  -35.0010  150.3040    3.8650 H   0  0  0  0  0  0  0  0  0  0  0  0
  -34.5088  151.2675    5.2080 H   0  0  0  0  0  0  0  0  0  0  0  0
  -34.0803  155.0228    6.1360 H   0  0  0  0  0  0  0  0  0  0  0  0
  -35.4363  156.3592    4.5263 H   0  0  0  0  0  0  0  0  0  0  0  0
  -38.9170  155.3790    3.6270 H   0  0  0  0  0  0  0  0  0  0  0  0
  -39.3590  156.4690    1.9500 H   0  0  0  0  0  0  0  0  0  0  0  0
  -39.3757  159.7459    3.0256 H   0  0  0  0  0  0  0  0  0  0  0  0
  -39.6187  161.7339    1.5469 H   0  0  0  0  0  0  0  0  0  0  0  0
  -38.4381  157.3181   -0.4123 H   0  0  0  0  0  0  0  0  0  0  0  0
  -38.6605  153.5056    4.8880 H   0  0  0  0  0  0  0  0  0  0  0  0
  -37.2984  152.1646    6.4884 H   0  0  0  0  0  0  0  0  0  0  0  0
  -35.5228  151.3175    9.4230 H   0  0  0  0  0  0  0  0  0  0  0  0
  -35.8162  148.8687    9.3261 H   0  0  0  0  0  0  0  0  0  0  0  0
  1  2  1  0
  2  3  1  0
  3  4  2  0
  3  5  1  0
  5  6  2  0
  6  7  1  0
  7  8  1  0
  8  9  1  0
  9 10  1  0
 10 11  2  0
 11 12  1  0
 12 13  1  0
 13 14  1  0
 14 15  2  0
 14 16  1  0
 16 17  1  0
 17 18  1  0
 18 19  2  0
 19 20  1  0
 20 21  1  0
 20 22  2  0
 22 23  1  0
 23 24  1  0
 23 25  1  0
 23 26  1  0
 22 27  1  0
 12 28  2  0
 28 29  1  0
  7 30  2  0
 30 31  1  0
 31 32  2  0
 32  5  1  0
 29  9  2  0
 27 17  2  0
  1 33  1  0
  1 34  1  0
  1 35  1  0
  2 36  1  0
  6 37  1  0
 10 38  1  0
 11 39  1  0
 13 40  1  0
 16 41  1  0
 18 42  1  0
 19 43  1  0
 27 44  1  0
 28 45  1  0
 29 46  1  0
 30 47  1  0
 31 48  1  0
M  END
>  <meeko>  (8) 
{"is_sidechain": false}

>  <vina_affinity_kcal_mol>  (8) 
-9.98

>  <pose_rank>  (8) 
8

$$$$

     RDKit          3D

 48 50  0  0  0  0  0  0  0  0999 V2000
  -34.5090  148.6750    6.1090 C   0  0  0  0  0  0  0  0  0  0  0  0
  -34.2610  150.0810    6.2730 N   0  0  0  0  0  0  0  0  0  0  0  0
  -35.2620  150.9810    6.5690 C   0  0  0  0  0  0  0  0  0  0  0  0
  -36.4220  150.6670    6.8060 O   0  0  0  0  0  0  0  0  0  0  0  0
  -34.8220  152.4140    6.5630 C   0  0  0  0  0  0  0  0  0  0  0  0
  -35.7210  153.4110    6.9050 C   0  0  0  0  0  0  0  0  0  0  0  0
  -35.2700  154.7230    6.8650 C   0  0  0  0  0  0  0  0  0  0  0  0
  -36.1590  155.7040    7.2380 O   0  0  0  0  0  0  0  0  0  0  0  0
  -36.7150  156.4560    6.2290 C   0  0  0  0  0  0  0  0  0  0  0  0
  -37.6580  155.8390    5.4120 C   0  0  0  0  0  0  0  0  0  0  0  0
  -38.2350  156.5440    4.3500 C   0  0  0  0  0  0  0  0  0  0  0  0
  -37.8560  157.8630    4.0850 C   0  0  0  0  0  0  0  0  0  0  0  0
  -38.3930  158.6440    3.0410 N   0  0  0  0  0  0  0  0  0  0  0  0
  -38.2320  158.4570    1.6740 C   0  0  0  0  0  0  0  0  0  0  0  0
  -37.5180  157.6070    1.1590 O   0  0  0  0  0  0  0  0  0  0  0  0
  -39.0030  159.3750    0.9720 N   0  0  0  0  0  0  0  0  0  0  0  0
  -39.0340  159.5770   -0.4230 C   0  0  0  0  0  0  0  0  0  0  0  0
  -39.0390  158.5470   -1.3610 C   0  0  0  0  0  0  0  0  0  0  0  0
  -39.0610  158.8360   -2.7290 C   0  0  0  0  0  0  0  0  0  0  0  0
  -39.0730  160.1590   -3.1760 C   0  0  0  0  0  0  0  0  0  0  0  0
  -39.1000  160.4280   -4.8800 Cl  0  0  0  0  0  0  0  0  0  0  0  0
  -39.0600  161.2110   -2.2560 C   0  0  0  0  0  0  0  0  0  0  0  0
  -39.0700  162.6460   -2.7040 C   0  0  0  0  0  0  0  0  0  0  0  0
  -40.1730  162.9740   -3.4300 F   0  0  0  0  0  0  0  0  0  0  0  0
  -39.0050  163.5310   -1.6730 F   0  0  0  0  0  0  0  0  0  0  0  0
  -38.0080  162.9550   -3.5080 F   0  0  0  0  0  0  0  0  0  0  0  0
  -39.0390  160.9020   -0.8800 C   0  0  0  0  0  0  0  0  0  0  0  0
  -36.8900  158.4670    4.9040 C   0  0  0  0  0  0  0  0  0  0  0  0
  -36.3150  157.7650    5.9670 C   0  0  0  0  0  0  0  0  0  0  0  0
  -33.9460  154.9980    6.5260 C   0  0  0  0  0  0  0  0  0  0  0  0
  -33.1220  153.9340    6.2020 C   0  0  0  0  0  0  0  0  0  0  0  0
  -33.5260  152.6450    6.2020 N   0  0  0  0  0  0  0  0  0  0  0  0
  -34.5928  148.1997    7.0975 H   0  0  0  0  0  0  0  0  0  0  0  0
  -35.4465  148.5306    5.5520 H   0  0  0  0  0  0  0  0  0  0  0  0
  -33.6775  148.2185    5.5520 H   0  0  0  0  0  0  0  0  0  0  0  0
  -33.3680  150.4830    5.9960 H   0  0  0  0  0  0  0  0  0  0  0  0
  -36.7541  153.1717    7.1974 H   0  0  0  0  0  0  0  0  0  0  0  0
  -37.9501  154.7956    5.6015 H   0  0  0  0  0  0  0  0  0  0  0  0
  -38.9926  156.0565    3.7189 H   0  0  0  0  0  0  0  0  0  0  0  0
  -38.8300  159.5070    3.3210 H   0  0  0  0  0  0  0  0  0  0  0  0
  -39.7160  159.8470    1.5070 H   0  0  0  0  0  0  0  0  0  0  0  0
  -39.0256  157.5001   -1.0235 H   0  0  0  0  0  0  0  0  0  0  0  0
  -39.0689  158.0138   -3.4597 H   0  0  0  0  0  0  0  0  0  0  0  0
  -39.0262  161.7219   -0.1467 H   0  0  0  0  0  0  0  0  0  0  0  0
  -36.5818  159.5045    4.7073 H   0  0  0  0  0  0  0  0  0  0  0  0
  -35.5493  158.2441    6.5947 H   0  0  0  0  0  0  0  0  0  0  0  0
  -33.5671  156.0306    6.5163 H   0  0  0  0  0  0  0  0  0  0  0  0
  -32.0787  154.1505    5.9289 H   0  0  0  0  0  0  0  0  0  0  0  0
  1  2  1  0
  2  3  1  0
  3  4  2  0
  3  5  1  0
  5  6  2  0
  6  7  1  0
  7  8  1  0
  8  9  1  0
  9 10  1  0
 10 11  2  0
 11 12  1  0
 12 13  1  0
 13 14  1  0
 14 15  2  0
 14 16  1  0
 16 17  1  0
 17 18  1  0
 18 19  2  0
 19 20  1  0
 20 21  1  0
 20 22  2  0
 22 23  1  0
 23 24  1  0
 23 25  1  0
 23 26  1  0
 22 27  1  0
 12 28  2  0
 28 29  1  0
  7 30  2  0
 30 31  1  0
 31 32  2  0
 32  5  1  0
 29  9  2  0
 27 17  2  0
  1 33  1  0
  1 34  1  0
  1 35  1  0
  2 36  1  0
  6 37  1  0
 10 38  1  0
 11 39  1  0
 13 40  1  0
 16 41  1  0
 18 42  1  0
 19 43  1  0
 27 44  1  0
 28 45  1  0
 29 46  1  0
 30 47  1  0
 31 48  1  0
M  END
>  <meeko>  (9) 
{"is_sidechain": false}

>  <vina_affinity_kcal_mol>  (9) 
-9.818

>  <pose_rank>  (9) 
9

$$$$

     RDKit          3D

 48 50  0  0  0  0  0  0  0  0999 V2000
  -37.3960  162.0200   -9.6400 C   0  0  0  0  0  0  0  0  0  0  0  0
  -37.8120  162.4910   -8.3480 N   0  0  0  0  0  0  0  0  0  0  0  0
  -37.0840  162.2510   -7.2020 C   0  0  0  0  0  0  0  0  0  0  0  0
  -35.9880  161.7030   -7.1840 O   0  0  0  0  0  0  0  0  0  0  0  0
  -37.7550  162.7060   -5.9410 C   0  0  0  0  0  0  0  0  0  0  0  0
  -38.5400  161.8190   -5.2210 C   0  0  0  0  0  0  0  0  0  0  0  0
  -39.1550  162.2940   -4.0720 C   0  0  0  0  0  0  0  0  0  0  0  0
  -39.9050  161.3980   -3.3440 O   0  0  0  0  0  0  0  0  0  0  0  0
  -39.3710  160.9630   -2.1540 C   0  0  0  0  0  0  0  0  0  0  0  0
  -38.7420  159.7210   -2.1480 C   0  0  0  0  0  0  0  0  0  0  0  0
  -38.2060  159.2120   -0.9610 C   0  0  0  0  0  0  0  0  0  0  0  0
  -38.3160  159.9310    0.2330 C   0  0  0  0  0  0  0  0  0  0  0  0
  -37.7980  159.4930    1.4700 N   0  0  0  0  0  0  0  0  0  0  0  0
  -37.8150  158.2040    1.9860 C   0  0  0  0  0  0  0  0  0  0  0  0
  -38.3640  157.2440    1.4640 O   0  0  0  0  0  0  0  0  0  0  0  0
  -37.1130  158.1600    3.1840 N   0  0  0  0  0  0  0  0  0  0  0  0
  -36.9890  157.0650    4.0630 C   0  0  0  0  0  0  0  0  0  0  0  0
  -38.0240  156.1800    4.3580 C   0  0  0  0  0  0  0  0  0  0  0  0
  -37.8190  155.1230    5.2510 C   0  0  0  0  0  0  0  0  0  0  0  0
  -36.5770  154.9410    5.8630 C   0  0  0  0  0  0  0  0  0  0  0  0
  -36.4080  153.6120    6.9510 Cl  0  0  0  0  0  0  0  0  0  0  0  0
  -35.5250  155.8190    5.5910 C   0  0  0  0  0  0  0  0  0  0  0  0
  -34.1760  155.6530    6.2370 C   0  0  0  0  0  0  0  0  0  0  0  0
  -34.2270  155.6780    7.5960 F   0  0  0  0  0  0  0  0  0  0  0  0
  -33.5540  154.4940    5.8900 F   0  0  0  0  0  0  0  0  0  0  0  0
  -33.3020  156.6460    5.8930 F   0  0  0  0  0  0  0  0  0  0  0  0
  -35.7480  156.8800    4.6880 C   0  0  0  0  0  0  0  0  0  0  0  0
  -38.9690  161.1720    0.2170 C   0  0  0  0  0  0  0  0  0  0  0  0
  -39.5030  161.6840   -0.9690 C   0  0  0  0  0  0  0  0  0  0  0  0
  -38.9450  163.6090   -3.6570 C   0  0  0  0  0  0  0  0  0  0  0  0
  -38.1430  164.4180   -4.4420 C   0  0  0  0  0  0  0  0  0  0  0  0
  -37.5460  164.0060   -5.5810 N   0  0  0  0  0  0  0  0  0  0  0  0
  -36.6724  161.2008   -9.5161 H   0  0  0  0  0  0  0  0  0  0  0  0
  -38.2717  161.6547  -10.1965 H   0  0  0  0  0  0  0  0  0  0  0  0
  -36.9254  162.8439  -10.1965 H   0  0  0  0  0  0  0  0  0  0  0  0
  -38.7500  162.8600   -8.2100 H   0  0  0  0  0  0  0  0  0  0  0  0
  -38.6704  160.7771   -5.5487 H   0  0  0  0  0  0  0  0  0  0  0  0
  -38.6665  159.1392   -3.0785 H   0  0  0  0  0  0  0  0  0  0  0  0
  -37.6939  158.2385   -0.9667 H   0  0  0  0  0  0  0  0  0  0  0  0
  -37.5030  160.2200    2.1020 H   0  0  0  0  0  0  0  0  0  0  0  0
  -36.5170  158.9510    3.3710 H   0  0  0  0  0  0  0  0  0  0  0  0
  -39.0085  156.3133    3.8857 H   0  0  0  0  0  0  0  0  0  0  0  0
  -38.6432  154.4292    5.4731 H   0  0  0  0  0  0  0  0  0  0  0  0
  -34.9276  157.5793    4.4690 H   0  0  0  0  0  0  0  0  0  0  0  0
  -39.0621  161.7493    1.1487 H   0  0  0  0  0  0  0  0  0  0  0  0
  -40.0253  162.6521   -0.9668 H   0  0  0  0  0  0  0  0  0  0  0  0
  -39.4034  163.9914   -2.7331 H   0  0  0  0  0  0  0  0  0  0  0  0
  -37.9823  165.4573   -4.1196 H   0  0  0  0  0  0  0  0  0  0  0  0
  1  2  1  0
  2  3  1  0
  3  4  2  0
  3  5  1  0
  5  6  2  0
  6  7  1  0
  7  8  1  0
  8  9  1  0
  9 10  1  0
 10 11  2  0
 11 12  1  0
 12 13  1  0
 13 14  1  0
 14 15  2  0
 14 16  1  0
 16 17  1  0
 17 18  1  0
 18 19  2  0
 19 20  1  0
 20 21  1  0
 20 22  2  0
 22 23  1  0
 23 24  1  0
 23 25  1  0
 23 26  1  0
 22 27  1  0
 12 28  2  0
 28 29  1  0
  7 30  2  0
 30 31  1  0
 31 32  2  0
 32  5  1  0
 29  9  2  0
 27 17  2  0
  1 33  1  0
  1 34  1  0
  1 35  1  0
  2 36  1  0
  6 37  1  0
 10 38  1  0
 11 39  1  0
 13 40  1  0
 16 41  1  0
 18 42  1  0
 19 43  1  0
 27 44  1  0
 28 45  1  0
 29 46  1  0
 30 47  1  0
 31 48  1  0
M  END
>  <meeko>  (10) 
{"is_sidechain": false}

>  <vina_affinity_kcal_mol>  (10) 
-9.679

>  <pose_rank>  (10) 
10

$$$$
