
     RDKit          3D

 25 26  0  0  0  0  0  0  0  0999 V2000
   -3.4288    1.5606   -0.2237 C   0  0  0  0  0  0  0  0  0  0  0  0
   -2.4373    0.5189    0.1975 C   0  0  0  0  0  0  0  0  0  0  0  0
   -2.9443   -0.6467    0.8752 C   0  0  0  0  0  0  0  0  0  0  0  0
   -2.1129   -1.6209    1.2542 C   0  0  0  0  0  0  0  0  0  0  0  0
   -0.6456   -1.5239    1.0083 C   0  0  0  0  0  0  0  0  0  0  0  0
    0.0412   -2.4467    1.4449 O   0  0  0  0  0  0  0  0  0  0  0  0
   -0.1974   -0.3638    0.3343 N   0  0  0  0  0  0  0  0  0  0  0  0
    1.2144   -0.1942    0.0515 C   0  0  0  0  0  0  0  0  0  0  0  0
    1.7820    1.0895   -0.0545 C   0  0  0  0  0  0  0  0  0  0  0  0
    3.1406    1.2672   -0.3425 C   0  0  0  0  0  0  0  0  0  0  0  0
    3.9633    0.1634   -0.5343 C   0  0  0  0  0  0  0  0  0  0  0  0
    3.4274   -1.1154   -0.4354 C   0  0  0  0  0  0  0  0  0  0  0  0
    2.0687   -1.2905   -0.1456 C   0  0  0  0  0  0  0  0  0  0  0  0
   -1.1205    0.6170   -0.0429 C   0  0  0  0  0  0  0  0  0  0  0  0
   -4.1682    1.1338   -0.9098 H   0  0  0  0  0  0  0  0  0  0  0  0
   -2.9463    2.3995   -0.7367 H   0  0  0  0  0  0  0  0  0  0  0  0
   -3.9557    1.9645    0.6475 H   0  0  0  0  0  0  0  0  0  0  0  0
   -4.0094   -0.7274    1.0681 H   0  0  0  0  0  0  0  0  0  0  0  0
   -2.4548   -2.5120    1.7652 H   0  0  0  0  0  0  0  0  0  0  0  0
    1.1940    1.9833    0.1312 H   0  0  0  0  0  0  0  0  0  0  0  0
    3.5548    2.2702   -0.4049 H   0  0  0  0  0  0  0  0  0  0  0  0
    5.0186    0.2978   -0.7554 H   0  0  0  0  0  0  0  0  0  0  0  0
    4.0612   -1.9858   -0.5856 H   0  0  0  0  0  0  0  0  0  0  0  0
    1.6961   -2.3107   -0.1122 H   0  0  0  0  0  0  0  0  0  0  0  0
   -0.7411    1.4724   -0.5911 H   0  0  0  0  0  0  0  0  0  0  0  0
  1  2  1  0
  2  3  1  0
  3  4  2  0
  4  5  1  0
  5  6  2  0
  5  7  1  0
  7  8  1  0
  8  9  2  0
  9 10  1  0
 10 11  2  0
 11 12  1  0
 12 13  2  0
  7 14  1  0
 14  2  2  0
 13  8  1  0
  1 15  1  0
  1 16  1  0
  1 17  1  0
  3 18  1  0
  4 19  1  0
  9 20  1  0
 10 21  1  0
 11 22  1  0
 12 23  1  0
 13 24  1  0
 14 25  1  0
M  END
$$$$
