
     RDKit          3D

 25 26  0  0  0  0  0  0  0  0999 V2000
  -13.7470    4.1270  -13.5800 C   0  0  0  0  0  0  0  0  0  0  0  0
  -12.4120    4.0730  -14.2600 C   0  0  0  0  0  0  0  0  0  0  0  0
  -11.5020    3.0320  -13.8580 C   0  0  0  0  0  0  0  0  0  0  0  0
  -10.3070    2.9170  -14.4430 C   0  0  0  0  0  0  0  0  0  0  0  0
   -9.8750    3.8670  -15.5070 C   0  0  0  0  0  0  0  0  0  0  0  0
   -8.7350    3.7120  -15.9440 O   0  0  0  0  0  0  0  0  0  0  0  0
  -10.8050    4.8680  -15.8730 N   0  0  0  0  0  0  0  0  0  0  0  0
  -10.4650    5.8290  -16.9020 C   0  0  0  0  0  0  0  0  0  0  0  0
  -10.7240    5.5600  -18.2590 C   0  0  0  0  0  0  0  0  0  0  0  0
  -10.3860    6.4730  -19.2650 C   0  0  0  0  0  0  0  0  0  0  0  0
   -9.7750    7.6770  -18.9360 C   0  0  0  0  0  0  0  0  0  0  0  0
   -9.5060    7.9670  -17.6040 C   0  0  0  0  0  0  0  0  0  0  0  0
   -9.8470    7.0530  -16.6010 C   0  0  0  0  0  0  0  0  0  0  0  0
  -12.0440    4.9290  -15.2250 C   0  0  0  0  0  0  0  0  0  0  0  0
  -13.6035    4.1212  -12.4894 H   0  0  0  0  0  0  0  0  0  0  0  0
  -14.2722    5.0471  -13.8758 H   0  0  0  0  0  0  0  0  0  0  0  0
  -14.3448    3.2523  -13.8758 H   0  0  0  0  0  0  0  0  0  0  0  0
  -11.7927    2.3276  -13.0647 H   0  0  0  0  0  0  0  0  0  0  0  0
   -9.6298    2.1070  -14.1342 H   0  0  0  0  0  0  0  0  0  0  0  0
  -11.2035    4.6095  -18.5358 H   0  0  0  0  0  0  0  0  0  0  0  0
  -10.6043    6.2371  -20.3170 H   0  0  0  0  0  0  0  0  0  0  0  0
   -9.5062    8.3954  -19.7245 H   0  0  0  0  0  0  0  0  0  0  0  0
   -9.0232    8.9186  -17.3371 H   0  0  0  0  0  0  0  0  0  0  0  0
   -9.6257    7.2993  -15.5520 H   0  0  0  0  0  0  0  0  0  0  0  0
  -12.7509    5.7178  -15.5217 H   0  0  0  0  0  0  0  0  0  0  0  0
  1  2  1  0
  2  3  1  0
  3  4  2  0
  4  5  1  0
  5  6  2  0
  5  7  1  0
  7  8  1  0
  8  9  2  0
  9 10  1  0
 10 11  2  0
 11 12  1  0
 12 13  2  0
  7 14  1  0
 14  2  2  0
 13  8  1  0
  1 15  1  0
  1 16  1  0
  1 17  1  0
  3 18  1  0
  4 19  1  0
  9 20  1  0
 10 21  1  0
 11 22  1  0
 12 23  1  0
 13 24  1  0
 14 25  1  0
M  END
>  <meeko>  (1) 
{"is_sidechain": false}

>  <vina_affinity_kcal_mol>  (1) 
-7.18

>  <pose_rank>  (1) 
1

$$$$

     RDKit          3D

 25 26  0  0  0  0  0  0  0  0999 V2000
  -11.9240    4.4670  -14.4040 C   0  0  0  0  0  0  0  0  0  0  0  0
  -10.8530    4.5190  -15.4520 C   0  0  0  0  0  0  0  0  0  0  0  0
   -9.8350    3.5010  -15.4140 C   0  0  0  0  0  0  0  0  0  0  0  0
   -8.8680    3.4800  -16.3340 C   0  0  0  0  0  0  0  0  0  0  0  0
   -8.8020    4.5110  -17.4090 C   0  0  0  0  0  0  0  0  0  0  0  0
   -7.8410    4.4370  -18.1750 O   0  0  0  0  0  0  0  0  0  0  0  0
   -9.8270    5.4850  -17.4090 N   0  0  0  0  0  0  0  0  0  0  0  0
   -9.8380    6.5210  -18.4220 C   0  0  0  0  0  0  0  0  0  0  0  0
  -10.2730    6.2480  -19.7330 C   0  0  0  0  0  0  0  0  0  0  0  0
  -10.2750    7.2360  -20.7250 C   0  0  0  0  0  0  0  0  0  0  0  0
   -9.8360    8.5210  -20.4300 C   0  0  0  0  0  0  0  0  0  0  0  0
   -9.4000    8.8170  -19.1440 C   0  0  0  0  0  0  0  0  0  0  0  0
   -9.4020    7.8280  -18.1540 C   0  0  0  0  0  0  0  0  0  0  0  0
  -10.8160    5.4480  -16.4200 C   0  0  0  0  0  0  0  0  0  0  0  0
  -11.4619    4.4894  -13.4060 H   0  0  0  0  0  0  0  0  0  0  0  0
  -12.5915    5.3338  -14.5185 H   0  0  0  0  0  0  0  0  0  0  0  0
  -12.5044    3.5396  -14.5185 H   0  0  0  0  0  0  0  0  0  0  0  0
   -9.8544    2.7369  -14.6229 H   0  0  0  0  0  0  0  0  0  0  0  0
   -8.1059    2.6876  -16.2983 H   0  0  0  0  0  0  0  0  0  0  0  0
  -10.6195    5.2345  -19.9838 H   0  0  0  0  0  0  0  0  0  0  0  0
  -10.6247    6.9946  -21.7396 H   0  0  0  0  0  0  0  0  0  0  0  0
   -9.8336    9.2981  -21.2085 H   0  0  0  0  0  0  0  0  0  0  0  0
   -9.0521    9.8324  -18.9035 H   0  0  0  0  0  0  0  0  0  0  0  0
   -9.0536    8.0809  -17.1417 H   0  0  0  0  0  0  0  0  0  0  0  0
  -11.6015    6.2178  -16.4366 H   0  0  0  0  0  0  0  0  0  0  0  0
  1  2  1  0
  2  3  1  0
  3  4  2  0
  4  5  1  0
  5  6  2  0
  5  7  1  0
  7  8  1  0
  8  9  2  0
  9 10  1  0
 10 11  2  0
 11 12  1  0
 12 13  2  0
  7 14  1  0
 14  2  2  0
 13  8  1  0
  1 15  1  0
  1 16  1  0
  1 17  1  0
  3 18  1  0
  4 19  1  0
  9 20  1  0
 10 21  1  0
 11 22  1  0
 12 23  1  0
 13 24  1  0
 14 25  1  0
M  END
>  <meeko>  (2) 
{"is_sidechain": false}

>  <vina_affinity_kcal_mol>  (2) 
-7.148

>  <pose_rank>  (2) 
2

$$$$

     RDKit          3D

 25 26  0  0  0  0  0  0  0  0999 V2000
  -10.3000    7.0230  -21.7770 C   0  0  0  0  0  0  0  0  0  0  0  0
  -10.0590    7.2890  -20.3210 C   0  0  0  0  0  0  0  0  0  0  0  0
   -9.6370    8.6150  -19.9480 C   0  0  0  0  0  0  0  0  0  0  0  0
   -9.4300    8.9210  -18.6650 C   0  0  0  0  0  0  0  0  0  0  0  0
   -9.6090    7.9030  -17.5900 C   0  0  0  0  0  0  0  0  0  0  0  0
   -9.3390    8.2680  -16.4460 O   0  0  0  0  0  0  0  0  0  0  0  0
  -10.0300    6.6180  -18.0050 N   0  0  0  0  0  0  0  0  0  0  0  0
  -10.2310    5.5730  -17.0220 C   0  0  0  0  0  0  0  0  0  0  0  0
  -11.2950    5.6370  -16.1030 C   0  0  0  0  0  0  0  0  0  0  0  0
  -11.4910    4.6410  -15.1380 C   0  0  0  0  0  0  0  0  0  0  0  0
  -10.6230    3.5580  -15.0680 C   0  0  0  0  0  0  0  0  0  0  0  0
   -9.5640    3.4710  -15.9640 C   0  0  0  0  0  0  0  0  0  0  0  0
   -9.3720    4.4670  -16.9280 C   0  0  0  0  0  0  0  0  0  0  0  0
  -10.2370    6.3640  -19.3660 C   0  0  0  0  0  0  0  0  0  0  0  0
  -11.0350    6.2117  -21.8848 H   0  0  0  0  0  0  0  0  0  0  0  0
  -10.6865    7.9341  -22.2571 H   0  0  0  0  0  0  0  0  0  0  0  0
   -9.3553    6.7280  -22.2571 H   0  0  0  0  0  0  0  0  0  0  0  0
   -9.4845    9.3793  -20.7243 H   0  0  0  0  0  0  0  0  0  0  0  0
   -9.1219    9.9422  -18.3961 H   0  0  0  0  0  0  0  0  0  0  0  0
  -11.9891    6.4894  -16.1436 H   0  0  0  0  0  0  0  0  0  0  0  0
  -12.3333    4.7161  -14.4345 H   0  0  0  0  0  0  0  0  0  0  0  0
  -10.7729    2.7757  -14.3094 H   0  0  0  0  0  0  0  0  0  0  0  0
   -8.8740    2.6157  -15.9151 H   0  0  0  0  0  0  0  0  0  0  0  0
   -8.5282    4.3811  -17.6284 H   0  0  0  0  0  0  0  0  0  0  0  0
  -10.5614    5.3569  -19.6669 H   0  0  0  0  0  0  0  0  0  0  0  0
  1  2  1  0
  2  3  1  0
  3  4  2  0
  4  5  1  0
  5  6  2  0
  5  7  1  0
  7  8  1  0
  8  9  2  0
  9 10  1  0
 10 11  2  0
 11 12  1  0
 12 13  2  0
  7 14  1  0
 14  2  2  0
 13  8  1  0
  1 15  1  0
  1 16  1  0
  1 17  1  0
  3 18  1  0
  4 19  1  0
  9 20  1  0
 10 21  1  0
 11 22  1  0
 12 23  1  0
 13 24  1  0
 14 25  1  0
M  END
>  <meeko>  (3) 
{"is_sidechain": false}

>  <vina_affinity_kcal_mol>  (3) 
-7.076

>  <pose_rank>  (3) 
3

$$$$

     RDKit          3D

 25 26  0  0  0  0  0  0  0  0999 V2000
   -7.5190    2.7290  -16.2500 C   0  0  0  0  0  0  0  0  0  0  0  0
   -8.6740    3.6770  -16.3750 C   0  0  0  0  0  0  0  0  0  0  0  0
   -9.7620    3.5260  -15.4430 C   0  0  0  0  0  0  0  0  0  0  0  0
  -10.8080    4.3550  -15.4880 C   0  0  0  0  0  0  0  0  0  0  0  0
  -10.8910    5.4390  -16.5080 C   0  0  0  0  0  0  0  0  0  0  0  0
  -11.9210    6.1130  -16.5020 O   0  0  0  0  0  0  0  0  0  0  0  0
   -9.7960    5.5520  -17.3960 N   0  0  0  0  0  0  0  0  0  0  0  0
   -9.7960    6.5830  -18.4140 C   0  0  0  0  0  0  0  0  0  0  0  0
  -10.1610    6.2900  -19.7410 C   0  0  0  0  0  0  0  0  0  0  0  0
  -10.1510    7.2740  -20.7380 C   0  0  0  0  0  0  0  0  0  0  0  0
   -9.7680    8.5740  -20.4290 C   0  0  0  0  0  0  0  0  0  0  0  0
   -9.4010    8.8890  -19.1270 C   0  0  0  0  0  0  0  0  0  0  0  0
   -9.4150    7.9040  -18.1320 C   0  0  0  0  0  0  0  0  0  0  0  0
   -8.7260    4.6550  -17.2910 C   0  0  0  0  0  0  0  0  0  0  0  0
   -7.3034    2.5520  -15.1860 H   0  0  0  0  0  0  0  0  0  0  0  0
   -7.7730    1.7755  -16.7362 H   0  0  0  0  0  0  0  0  0  0  0  0
   -6.6333    3.1640  -16.7362 H   0  0  0  0  0  0  0  0  0  0  0  0
   -9.7311    2.7241  -14.6907 H   0  0  0  0  0  0  0  0  0  0  0  0
  -11.6232    4.2358  -14.7591 H   0  0  0  0  0  0  0  0  0  0  0  0
  -10.4612    5.2643  -20.0016 H   0  0  0  0  0  0  0  0  0  0  0  0
  -10.4464    7.0177  -21.7661 H   0  0  0  0  0  0  0  0  0  0  0  0
   -9.7556    9.3481  -21.2104 H   0  0  0  0  0  0  0  0  0  0  0  0
   -9.0981    9.9164  -18.8765 H   0  0  0  0  0  0  0  0  0  0  0  0
   -9.1208    8.1715  -17.1064 H   0  0  0  0  0  0  0  0  0  0  0  0
   -7.8867    4.7576  -17.9946 H   0  0  0  0  0  0  0  0  0  0  0  0
  1  2  1  0
  2  3  1  0
  3  4  2  0
  4  5  1  0
  5  6  2  0
  5  7  1  0
  7  8  1  0
  8  9  2  0
  9 10  1  0
 10 11  2  0
 11 12  1  0
 12 13  2  0
  7 14  1  0
 14  2  2  0
 13  8  1  0
  1 15  1  0
  1 16  1  0
  1 17  1  0
  3 18  1  0
  4 19  1  0
  9 20  1  0
 10 21  1  0
 11 22  1  0
 12 23  1  0
 13 24  1  0
 14 25  1  0
M  END
>  <meeko>  (4) 
{"is_sidechain": false}

>  <vina_affinity_kcal_mol>  (4) 
-6.867

>  <pose_rank>  (4) 
4

$$$$

     RDKit          3D

 25 26  0  0  0  0  0  0  0  0999 V2000
   -7.4910    2.5160  -16.1550 C   0  0  0  0  0  0  0  0  0  0  0  0
   -8.6310    3.4860  -16.2390 C   0  0  0  0  0  0  0  0  0  0  0  0
   -9.6920    3.3530  -15.2730 C   0  0  0  0  0  0  0  0  0  0  0  0
  -10.7220    4.2020  -15.2830 C   0  0  0  0  0  0  0  0  0  0  0  0
  -10.8160    5.2920  -16.2950 C   0  0  0  0  0  0  0  0  0  0  0  0
  -11.8320    5.9860  -16.2550 O   0  0  0  0  0  0  0  0  0  0  0  0
   -9.7480    5.3870  -17.2180 N   0  0  0  0  0  0  0  0  0  0  0  0
   -9.7600    6.4210  -18.2330 C   0  0  0  0  0  0  0  0  0  0  0  0
   -9.3580    7.7360  -17.9320 C   0  0  0  0  0  0  0  0  0  0  0  0
   -9.3800    8.7480  -18.8990 C   0  0  0  0  0  0  0  0  0  0  0  0
   -9.8100    8.4680  -20.1910 C   0  0  0  0  0  0  0  0  0  0  0  0
  -10.2130    7.1790  -20.5140 C   0  0  0  0  0  0  0  0  0  0  0  0
  -10.1890    6.1680  -19.5460 C   0  0  0  0  0  0  0  0  0  0  0  0
   -8.6930    4.4690  -17.1500 C   0  0  0  0  0  0  0  0  0  0  0  0
   -7.2564    2.3164  -15.0990 H   0  0  0  0  0  0  0  0  0  0  0  0
   -7.7721    1.5759  -16.6522 H   0  0  0  0  0  0  0  0  0  0  0  0
   -6.6080    2.9440  -16.6522 H   0  0  0  0  0  0  0  0  0  0  0  0
   -9.6529    2.5483  -14.5241 H   0  0  0  0  0  0  0  0  0  0  0  0
  -11.5166    4.0951  -14.5299 H   0  0  0  0  0  0  0  0  0  0  0  0
   -9.0186    7.9740  -16.9131 H   0  0  0  0  0  0  0  0  0  0  0  0
   -9.0566    9.7660  -18.6362 H   0  0  0  0  0  0  0  0  0  0  0  0
   -9.8309    9.2619  -20.9521 H   0  0  0  0  0  0  0  0  0  0  0  0
  -10.5527    6.9513  -21.5352 H   0  0  0  0  0  0  0  0  0  0  0  0
  -10.5133    5.1532  -19.8199 H   0  0  0  0  0  0  0  0  0  0  0  0
   -7.8746    4.5581  -17.8795 H   0  0  0  0  0  0  0  0  0  0  0  0
  1  2  1  0
  2  3  1  0
  3  4  2  0
  4  5  1  0
  5  6  2  0
  5  7  1  0
  7  8  1  0
  8  9  2  0
  9 10  1  0
 10 11  2  0
 11 12  1  0
 12 13  2  0
  7 14  1  0
 14  2  2  0
 13  8  1  0
  1 15  1  0
  1 16  1  0
  1 17  1  0
  3 18  1  0
  4 19  1  0
  9 20  1  0
 10 21  1  0
 11 22  1  0
 12 23  1  0
 13 24  1  0
 14 25  1  0
M  END
>  <meeko>  (5) 
{"is_sidechain": false}

>  <vina_affinity_kcal_mol>  (5) 
-6.818

>  <pose_rank>  (5) 
5

$$$$

     RDKit          3D

 25 26  0  0  0  0  0  0  0  0999 V2000
  -13.6690    1.7720  -11.6090 C   0  0  0  0  0  0  0  0  0  0  0  0
  -13.0330    2.6250  -12.6660 C   0  0  0  0  0  0  0  0  0  0  0  0
  -13.8370    3.6660  -13.2530 C   0  0  0  0  0  0  0  0  0  0  0  0
  -13.3200    4.4740  -14.1820 C   0  0  0  0  0  0  0  0  0  0  0  0
  -11.9140    4.3120  -14.6500 C   0  0  0  0  0  0  0  0  0  0  0  0
  -11.5490    5.0700  -15.5490 O   0  0  0  0  0  0  0  0  0  0  0  0
  -11.1630    3.2810  -14.0400 N   0  0  0  0  0  0  0  0  0  0  0  0
   -9.7860    3.0590  -14.4350 C   0  0  0  0  0  0  0  0  0  0  0  0
   -9.4420    2.8680  -15.7860 C   0  0  0  0  0  0  0  0  0  0  0  0
   -8.1180    2.6390  -16.1790 C   0  0  0  0  0  0  0  0  0  0  0  0
   -7.1070    2.5890  -15.2270 C   0  0  0  0  0  0  0  0  0  0  0  0
   -7.4200    2.7740  -13.8860 C   0  0  0  0  0  0  0  0  0  0  0  0
   -8.7440    3.0050  -13.4960 C   0  0  0  0  0  0  0  0  0  0  0  0
  -11.7620    2.4730  -13.0670 C   0  0  0  0  0  0  0  0  0  0  0  0
  -13.3876    2.1494  -10.6148 H   0  0  0  0  0  0  0  0  0  0  0  0
  -14.7630    1.8073  -11.7185 H   0  0  0  0  0  0  0  0  0  0  0  0
  -13.3229    0.7336  -11.7185 H   0  0  0  0  0  0  0  0  0  0  0  0
  -14.8818    3.7960  -12.9345 H   0  0  0  0  0  0  0  0  0  0  0  0
  -13.9428    5.2735  -14.6096 H   0  0  0  0  0  0  0  0  0  0  0  0
  -10.2317    2.8994  -16.5511 H   0  0  0  0  0  0  0  0  0  0  0  0
   -7.8776    2.4984  -17.2432 H   0  0  0  0  0  0  0  0  0  0  0  0
   -6.0666    2.4043  -15.5328 H   0  0  0  0  0  0  0  0  0  0  0  0
   -6.6238    2.7387  -13.1278 H   0  0  0  0  0  0  0  0  0  0  0  0
   -8.9733    3.1475  -12.4296 H   0  0  0  0  0  0  0  0  0  0  0  0
  -11.1610    1.6739  -12.6085 H   0  0  0  0  0  0  0  0  0  0  0  0
  1  2  1  0
  2  3  1  0
  3  4  2  0
  4  5  1  0
  5  6  2  0
  5  7  1  0
  7  8  1  0
  8  9  2  0
  9 10  1  0
 10 11  2  0
 11 12  1  0
 12 13  2  0
  7 14  1  0
 14  2  2  0
 13  8  1  0
  1 15  1  0
  1 16  1  0
  1 17  1  0
  3 18  1  0
  4 19  1  0
  9 20  1  0
 10 21  1  0
 11 22  1  0
 12 23  1  0
 13 24  1  0
 14 25  1  0
M  END
>  <meeko>  (6) 
{"is_sidechain": false}

>  <vina_affinity_kcal_mol>  (6) 
-6.454

>  <pose_rank>  (6) 
6

$$$$

     RDKit          3D

 25 26  0  0  0  0  0  0  0  0999 V2000
   -9.5060    2.4220  -13.4030 C   0  0  0  0  0  0  0  0  0  0  0  0
  -10.4760    3.3190  -14.1120 C   0  0  0  0  0  0  0  0  0  0  0  0
  -11.8450    3.3040  -13.6650 C   0  0  0  0  0  0  0  0  0  0  0  0
  -12.7510    4.0980  -14.2400 C   0  0  0  0  0  0  0  0  0  0  0  0
  -12.3820    5.0030  -15.3660 C   0  0  0  0  0  0  0  0  0  0  0  0
  -13.3000    5.6530  -15.8650 O   0  0  0  0  0  0  0  0  0  0  0  0
  -11.0240    4.9880  -15.7650 N   0  0  0  0  0  0  0  0  0  0  0  0
  -10.5810    5.8400  -16.8490 C   0  0  0  0  0  0  0  0  0  0  0  0
   -9.8840    7.0350  -16.5920 C   0  0  0  0  0  0  0  0  0  0  0  0
   -9.4630    7.8760  -17.6300 C   0  0  0  0  0  0  0  0  0  0  0  0
   -9.7360    7.5420  -18.9510 C   0  0  0  0  0  0  0  0  0  0  0  0
  -10.4250    6.3680  -19.2320 C   0  0  0  0  0  0  0  0  0  0  0  0
  -10.8420    5.5290  -18.1930 C   0  0  0  0  0  0  0  0  0  0  0  0
  -10.1230    4.1360  -15.1150 C   0  0  0  0  0  0  0  0  0  0  0  0
   -9.6288    2.5356  -12.3158 H   0  0  0  0  0  0  0  0  0  0  0  0
   -9.6986    1.3768  -13.6865 H   0  0  0  0  0  0  0  0  0  0  0  0
   -8.4790    2.6956  -13.6865 H   0  0  0  0  0  0  0  0  0  0  0  0
  -12.1456    2.6347  -12.8454 H   0  0  0  0  0  0  0  0  0  0  0  0
  -13.7891    4.0844  -13.8764 H   0  0  0  0  0  0  0  0  0  0  0  0
   -9.6645    7.3154  -15.5512 H   0  0  0  0  0  0  0  0  0  0  0  0
   -8.9157    8.8019  -17.3993 H   0  0  0  0  0  0  0  0  0  0  0  0
   -9.4092    8.2018  -19.7682 H   0  0  0  0  0  0  0  0  0  0  0  0
  -10.6433    6.0974  -20.2756 H   0  0  0  0  0  0  0  0  0  0  0  0
  -11.3868    4.6045  -18.4346 H   0  0  0  0  0  0  0  0  0  0  0  0
   -9.0732    4.1369  -15.4435 H   0  0  0  0  0  0  0  0  0  0  0  0
  1  2  1  0
  2  3  1  0
  3  4  2  0
  4  5  1  0
  5  6  2  0
  5  7  1  0
  7  8  1  0
  8  9  2  0
  9 10  1  0
 10 11  2  0
 11 12  1  0
 12 13  2  0
  7 14  1  0
 14  2  2  0
 13  8  1  0
  1 15  1  0
  1 16  1  0
  1 17  1  0
  3 18  1  0
  4 19  1  0
  9 20  1  0
 10 21  1  0
 11 22  1  0
 12 23  1  0
 13 24  1  0
 14 25  1  0
M  END
>  <meeko>  (7) 
{"is_sidechain": false}

>  <vina_affinity_kcal_mol>  (7) 
-6.441

>  <pose_rank>  (7) 
7

$$$$

     RDKit          3D

 25 26  0  0  0  0  0  0  0  0999 V2000
  -11.5170    0.8630  -11.2760 C   0  0  0  0  0  0  0  0  0  0  0  0
  -12.0980    1.8680  -12.2250 C   0  0  0  0  0  0  0  0  0  0  0  0
  -13.4890    2.2080  -12.0650 C   0  0  0  0  0  0  0  0  0  0  0  0
  -14.0570    3.1150  -12.8640 C   0  0  0  0  0  0  0  0  0  0  0  0
  -13.2820    3.7840  -13.9470 C   0  0  0  0  0  0  0  0  0  0  0  0
  -13.9100    4.5620  -14.6640 O   0  0  0  0  0  0  0  0  0  0  0  0
  -11.9190    3.4230  -14.0600 N   0  0  0  0  0  0  0  0  0  0  0  0
  -11.0940    4.0300  -15.0840 C   0  0  0  0  0  0  0  0  0  0  0  0
  -11.3720    5.3230  -15.5670 C   0  0  0  0  0  0  0  0  0  0  0  0
  -10.5920    5.9150  -16.5670 C   0  0  0  0  0  0  0  0  0  0  0  0
   -9.5160    5.2240  -17.1130 C   0  0  0  0  0  0  0  0  0  0  0  0
   -9.2210    3.9460  -16.6550 C   0  0  0  0  0  0  0  0  0  0  0  0
  -10.0010    3.3570  -15.6530 C   0  0  0  0  0  0  0  0  0  0  0  0
  -11.3820    2.4700  -13.1870 C   0  0  0  0  0  0  0  0  0  0  0  0
  -11.7034    1.1855  -10.2410 H   0  0  0  0  0  0  0  0  0  0  0  0
  -11.9882   -0.1164  -11.4454 H   0  0  0  0  0  0  0  0  0  0  0  0
  -10.4331    0.7826  -11.4454 H   0  0  0  0  0  0  0  0  0  0  0  0
  -14.0857    1.7184  -11.2813 H   0  0  0  0  0  0  0  0  0  0  0  0
  -15.1166    3.3731  -12.7201 H   0  0  0  0  0  0  0  0  0  0  0  0
  -12.2225    5.8812  -15.1485 H   0  0  0  0  0  0  0  0  0  0  0  0
  -10.8306    6.9286  -16.9216 H   0  0  0  0  0  0  0  0  0  0  0  0
   -8.9032    5.6856  -17.9013 H   0  0  0  0  0  0  0  0  0  0  0  0
   -8.3704    3.3943  -17.0818 H   0  0  0  0  0  0  0  0  0  0  0  0
   -9.7521    2.3441  -15.3035 H   0  0  0  0  0  0  0  0  0  0  0  0
  -10.3208    2.2013  -13.2948 H   0  0  0  0  0  0  0  0  0  0  0  0
  1  2  1  0
  2  3  1  0
  3  4  2  0
  4  5  1  0
  5  6  2  0
  5  7  1  0
  7  8  1  0
  8  9  2  0
  9 10  1  0
 10 11  2  0
 11 12  1  0
 12 13  2  0
  7 14  1  0
 14  2  2  0
 13  8  1  0
  1 15  1  0
  1 16  1  0
  1 17  1  0
  3 18  1  0
  4 19  1  0
  9 20  1  0
 10 21  1  0
 11 22  1  0
 12 23  1  0
 13 24  1  0
 14 25  1  0
M  END
>  <meeko>  (8) 
{"is_sidechain": false}

>  <vina_affinity_kcal_mol>  (8) 
-6.439

>  <pose_rank>  (8) 
8

$$$$

     RDKit          3D

 25 26  0  0  0  0  0  0  0  0999 V2000
   -9.6380    7.6050  -17.4900 C   0  0  0  0  0  0  0  0  0  0  0  0
   -9.6260    6.1880  -17.0010 C   0  0  0  0  0  0  0  0  0  0  0  0
   -8.5920    5.3190  -17.5010 C   0  0  0  0  0  0  0  0  0  0  0  0
   -8.5150    4.0530  -17.0840 C   0  0  0  0  0  0  0  0  0  0  0  0
   -9.4990    3.4990  -16.1110 C   0  0  0  0  0  0  0  0  0  0  0  0
   -9.3760    2.3070  -15.8330 O   0  0  0  0  0  0  0  0  0  0  0  0
  -10.4920    4.3920  -15.6440 N   0  0  0  0  0  0  0  0  0  0  0  0
  -11.4850    3.9340  -14.6930 C   0  0  0  0  0  0  0  0  0  0  0  0
  -12.7790    4.4870  -14.6740 C   0  0  0  0  0  0  0  0  0  0  0  0
  -13.7430    4.0630  -13.7510 C   0  0  0  0  0  0  0  0  0  0  0  0
  -13.4310    3.0790  -12.8200 C   0  0  0  0  0  0  0  0  0  0  0  0
  -12.1610    2.5170  -12.8170 C   0  0  0  0  0  0  0  0  0  0  0  0
  -11.2000    2.9410  -13.7420 C   0  0  0  0  0  0  0  0  0  0  0  0
  -10.5130    5.7090  -16.1150 C   0  0  0  0  0  0  0  0  0  0  0  0
   -9.6438    8.2899  -16.6292 H   0  0  0  0  0  0  0  0  0  0  0  0
   -8.7414    7.7901  -18.0998 H   0  0  0  0  0  0  0  0  0  0  0  0
  -10.5376    7.7748  -18.0998 H   0  0  0  0  0  0  0  0  0  0  0  0
   -7.8620    5.7003  -18.2302 H   0  0  0  0  0  0  0  0  0  0  0  0
   -7.7106    3.4069  -17.4655 H   0  0  0  0  0  0  0  0  0  0  0  0
  -13.0392    5.2704  -15.4010 H   0  0  0  0  0  0  0  0  0  0  0  0
  -14.7484    4.5092  -13.7627 H   0  0  0  0  0  0  0  0  0  0  0  0
  -14.1849    2.7477  -12.0906 H   0  0  0  0  0  0  0  0  0  0  0  0
  -11.9094    1.7356  -12.0848 H   0  0  0  0  0  0  0  0  0  0  0  0
  -10.1987    2.4860  -13.7236 H   0  0  0  0  0  0  0  0  0  0  0  0
  -11.2953    6.3856  -15.7406 H   0  0  0  0  0  0  0  0  0  0  0  0
  1  2  1  0
  2  3  1  0
  3  4  2  0
  4  5  1  0
  5  6  2  0
  5  7  1  0
  7  8  1  0
  8  9  2  0
  9 10  1  0
 10 11  2  0
 11 12  1  0
 12 13  2  0
  7 14  1  0
 14  2  2  0
 13  8  1  0
  1 15  1  0
  1 16  1  0
  1 17  1  0
  3 18  1  0
  4 19  1  0
  9 20  1  0
 10 21  1  0
 11 22  1  0
 12 23  1  0
 13 24  1  0
 14 25  1  0
M  END
>  <meeko>  (9) 
{"is_sidechain": false}

>  <vina_affinity_kcal_mol>  (9) 
-6.402

>  <pose_rank>  (9) 
9

$$$$

     RDKit          3D

 25 26  0  0  0  0  0  0  0  0999 V2000
   -9.5810    8.1420  -18.6940 C   0  0  0  0  0  0  0  0  0  0  0  0
   -9.2420    6.7510  -18.2510 C   0  0  0  0  0  0  0  0  0  0  0  0
   -8.2500    6.0340  -19.0100 C   0  0  0  0  0  0  0  0  0  0  0  0
   -7.8870    4.8000  -18.6490 C   0  0  0  0  0  0  0  0  0  0  0  0
   -8.5070    4.1250  -17.4730 C   0  0  0  0  0  0  0  0  0  0  0  0
   -8.1460    2.9690  -17.2570 O   0  0  0  0  0  0  0  0  0  0  0  0
   -9.4700    4.8720  -16.7560 N   0  0  0  0  0  0  0  0  0  0  0  0
  -10.1170    4.2910  -15.5970 C   0  0  0  0  0  0  0  0  0  0  0  0
  -11.4310    4.6500  -15.2440 C   0  0  0  0  0  0  0  0  0  0  0  0
  -12.0620    4.1070  -14.1180 C   0  0  0  0  0  0  0  0  0  0  0  0
  -11.3890    3.1950  -13.3140 C   0  0  0  0  0  0  0  0  0  0  0  0
  -10.0900    2.8240  -13.6400 C   0  0  0  0  0  0  0  0  0  0  0  0
   -9.4630    3.3670  -14.7670 C   0  0  0  0  0  0  0  0  0  0  0  0
   -9.8000    6.1640  -17.1810 C   0  0  0  0  0  0  0  0  0  0  0  0
   -9.7365    8.7802  -17.8116 H   0  0  0  0  0  0  0  0  0  0  0  0
   -8.7550    8.5461  -19.2978 H   0  0  0  0  0  0  0  0  0  0  0  0
  -10.5003    8.1207  -19.2978 H   0  0  0  0  0  0  0  0  0  0  0  0
   -7.7891    6.5046  -19.8910 H   0  0  0  0  0  0  0  0  0  0  0  0
   -7.1165    4.2722  -19.2301 H   0  0  0  0  0  0  0  0  0  0  0  0
  -11.9755    5.3745  -15.8674 H   0  0  0  0  0  0  0  0  0  0  0  0
  -13.0919    4.4028  -13.8695 H   0  0  0  0  0  0  0  0  0  0  0  0
  -11.8806    2.7701  -12.4265 H   0  0  0  0  0  0  0  0  0  0  0  0
   -9.5524    2.1005  -13.0095 H   0  0  0  0  0  0  0  0  0  0  0  0
   -8.4338    3.0627  -15.0081 H   0  0  0  0  0  0  0  0  0  0  0  0
  -10.5538    6.7259  -16.6099 H   0  0  0  0  0  0  0  0  0  0  0  0
  1  2  1  0
  2  3  1  0
  3  4  2  0
  4  5  1  0
  5  6  2  0
  5  7  1  0
  7  8  1  0
  8  9  2  0
  9 10  1  0
 10 11  2  0
 11 12  1  0
 12 13  2  0
  7 14  1  0
 14  2  2  0
 13  8  1  0
  1 15  1  0
  1 16  1  0
  1 17  1  0
  3 18  1  0
  4 19  1  0
  9 20  1  0
 10 21  1  0
 11 22  1  0
 12 23  1  0
 13 24  1  0
 14 25  1  0
M  END
>  <meeko>  (10) 
{"is_sidechain": false}

>  <vina_affinity_kcal_mol>  (10) 
-6.303

>  <pose_rank>  (10) 
10

$$$$
