
     RDKit          3D

 73 77  0  0  0  0  0  0  0  0999 V2000
   -8.9420    9.5560  -19.9400 C   0  0  0  0  0  0  0  0  0  0  0  0
  -10.0820    8.8400  -20.4190 O   0  0  0  0  0  0  0  0  0  0  0  0
   -9.8120    7.5670  -20.7990 C   0  0  0  0  0  0  0  0  0  0  0  0
   -9.6550    7.1790  -21.9450 O   0  0  0  0  0  0  0  0  0  0  0  0
   -9.7270    6.6690  -19.6150 C   0  0  0  0  0  0  0  0  0  0  0  0
   -8.6580    5.7680  -19.4260 C   0  0  0  0  0  0  0  0  0  0  0  0
   -8.6030    4.9330  -18.2980 C   0  0  0  0  0  0  0  0  0  0  0  0
   -9.6260    4.9960  -17.3680 C   0  0  0  0  0  0  0  0  0  0  0  0
  -10.6700    5.9110  -17.5640 C   0  0  0  0  0  0  0  0  0  0  0  0
  -10.7510    6.7460  -18.6620 C   0  0  0  0  0  0  0  0  0  0  0  0
  -11.5700    5.8690  -16.5060 N   0  0  0  0  0  0  0  0  0  0  0  0
  -11.1820    4.9480  -15.5540 C   0  0  0  0  0  0  0  0  0  0  0  0
  -11.7430    4.7040  -14.5000 O   0  0  0  0  0  0  0  0  0  0  0  0
   -9.9160    4.3150  -16.0900 C   0  0  0  0  0  0  0  0  0  0  0  0
   -9.3040    3.3190  -15.4000 C   0  0  0  0  0  0  0  0  0  0  0  0
   -9.7420    2.8910  -14.1490 N   0  0  0  0  0  0  0  0  0  0  0  0
   -9.7830    1.6590  -13.4760 C   0  0  0  0  0  0  0  0  0  0  0  0
   -8.7480    0.7330  -13.4140 C   0  0  0  0  0  0  0  0  0  0  0  0
   -8.8670   -0.4570  -12.6710 C   0  0  0  0  0  0  0  0  0  0  0  0
  -10.0220   -0.7640  -11.9360 C   0  0  0  0  0  0  0  0  0  0  0  0
  -10.1410   -2.0020  -11.1960 N   0  0  0  0  0  0  0  0  0  0  0  0
   -9.1410   -2.2630  -10.1590 C   0  0  0  0  0  0  0  0  0  0  0  0
  -11.2300   -2.8830  -11.3820 C   0  0  0  0  0  0  0  0  0  0  0  0
  -11.4690   -3.4550  -12.4480 O   0  0  0  0  0  0  0  0  0  0  0  0
  -12.1400   -3.0900  -10.1460 C   0  0  0  0  0  0  0  0  0  0  0  0
  -12.9000   -1.9070   -9.7050 N   0  0  0  0  0  0  0  0  0  0  0  0
  -12.3650   -1.2600   -8.5030 C   0  0  0  0  0  0  0  0  0  0  0  0
  -13.0640    0.0940   -8.1990 C   0  0  0  0  0  0  0  0  0  0  0  0
  -14.4960    0.1970   -8.5620 N   0  0  0  0  0  0  0  0  0  0  0  0
  -14.6640    0.9180   -9.8240 C   0  0  0  0  0  0  0  0  0  0  0  0
  -15.0830   -1.1540   -8.6460 C   0  0  0  0  0  0  0  0  0  0  0  0
  -14.3510   -2.1390   -9.5970 C   0  0  0  0  0  0  0  0  0  0  0  0
  -11.0650    0.1650  -12.0110 C   0  0  0  0  0  0  0  0  0  0  0  0
  -10.9440    1.3490  -12.7550 C   0  0  0  0  0  0  0  0  0  0  0  0
   -8.0790    2.7230  -15.9680 C   0  0  0  0  0  0  0  0  0  0  0  0
   -8.1600    1.6790  -16.9030 C   0  0  0  0  0  0  0  0  0  0  0  0
   -6.9980    1.1270  -17.4460 C   0  0  0  0  0  0  0  0  0  0  0  0
   -5.7500    1.6120  -17.0600 C   0  0  0  0  0  0  0  0  0  0  0  0
   -5.6580    2.6470  -16.1280 C   0  0  0  0  0  0  0  0  0  0  0  0
   -6.8180    3.2020  -15.5840 C   0  0  0  0  0  0  0  0  0  0  0  0
   -8.9439    9.5548  -18.8400 H   0  0  0  0  0  0  0  0  0  0  0  0
   -8.0246    9.0716  -20.3056 H   0  0  0  0  0  0  0  0  0  0  0  0
   -8.9800   10.5928  -20.3056 H   0  0  0  0  0  0  0  0  0  0  0  0
   -7.8538    5.7186  -20.1749 H   0  0  0  0  0  0  0  0  0  0  0  0
   -7.7605    4.2402  -18.1560 H   0  0  0  0  0  0  0  0  0  0  0  0
  -11.5902    7.4467  -18.7836 H   0  0  0  0  0  0  0  0  0  0  0  0
  -12.3900    6.4470  -16.4040 H   0  0  0  0  0  0  0  0  0  0  0  0
  -10.1650    3.6470  -13.5980 H   0  0  0  0  0  0  0  0  0  0  0  0
   -7.8137    0.9348  -13.9584 H   0  0  0  0  0  0  0  0  0  0  0  0
   -8.0280   -1.1684  -12.6666 H   0  0  0  0  0  0  0  0  0  0  0  0
   -9.6013   -2.1429   -9.1672 H   0  0  0  0  0  0  0  0  0  0  0  0
   -8.7620   -3.2902  -10.2653 H   0  0  0  0  0  0  0  0  0  0  0  0
   -8.3084   -1.5521  -10.2653 H   0  0  0  0  0  0  0  0  0  0  0  0
  -12.8617   -3.8843  -10.3872 H   0  0  0  0  0  0  0  0  0  0  0  0
  -11.4637   -3.3381   -9.3147 H   0  0  0  0  0  0  0  0  0  0  0  0
  -12.5101   -1.9330   -7.6451 H   0  0  0  0  0  0  0  0  0  0  0  0
  -11.2986   -1.0553   -8.6784 H   0  0  0  0  0  0  0  0  0  0  0  0
  -12.9797    0.2777   -7.1177 H   0  0  0  0  0  0  0  0  0  0  0  0
  -12.5506    0.8338   -8.8308 H   0  0  0  0  0  0  0  0  0  0  0  0
  -14.9091    1.9699   -9.6155 H   0  0  0  0  0  0  0  0  0  0  0  0
  -13.7299    0.8669  -10.4026 H   0  0  0  0  0  0  0  0  0  0  0  0
  -15.4793    0.4593  -10.4026 H   0  0  0  0  0  0  0  0  0  0  0  0
  -15.0777   -1.5899   -7.6361 H   0  0  0  0  0  0  0  0  0  0  0  0
  -16.0917   -1.0212   -9.0643 H   0  0  0  0  0  0  0  0  0  0  0  0
  -14.5102   -3.1615   -9.2240 H   0  0  0  0  0  0  0  0  0  0  0  0
  -14.7723   -1.9817  -10.6009 H   0  0  0  0  0  0  0  0  0  0  0  0
  -12.0032   -0.0373  -11.4736 H   0  0  0  0  0  0  0  0  0  0  0  0
  -11.7868    2.0557  -12.7727 H   0  0  0  0  0  0  0  0  0  0  0  0
   -9.1438    1.2939  -17.2094 H   0  0  0  0  0  0  0  0  0  0  0  0
   -7.0678    0.3093  -18.1785 H   0  0  0  0  0  0  0  0  0  0  0  0
   -4.8354    1.1783  -17.4907 H   0  0  0  0  0  0  0  0  0  0  0  0
   -4.6715    3.0255  -15.8221 H   0  0  0  0  0  0  0  0  0  0  0  0
   -6.7425    4.0186  -14.8509 H   0  0  0  0  0  0  0  0  0  0  0  0
  1  2  1  0
  2  3  1  0
  3  4  2  0
  3  5  1  0
  5  6  1  0
  6  7  2  0
  7  8  1  0
  8  9  2  0
  9 10  1  0
  9 11  1  0
 11 12  1  0
 12 13  2  0
 12 14  1  0
 14 15  2  0
 15 16  1  0
 16 17  1  0
 17 18  1  0
 18 19  2  0
 19 20  1  0
 20 21  1  0
 21 22  1  0
 21 23  1  0
 23 24  2  0
 23 25  1  0
 25 26  1  0
 26 27  1  0
 27 28  1  0
 28 29  1  0
 29 30  1  0
 29 31  1  0
 31 32  1  0
 20 33  2  0
 33 34  1  0
 15 35  1  0
 35 36  2  0
 36 37  1  0
 37 38  2  0
 38 39  1  0
 39 40  2  0
 10  5  2  0
 34 17  2  0
 40 35  1  0
 14  8  1  0
 32 26  1  0
  1 41  1  0
  1 42  1  0
  1 43  1  0
  6 44  1  0
  7 45  1  0
 10 46  1  0
 11 47  1  0
 16 48  1  0
 18 49  1  0
 19 50  1  0
 22 51  1  0
 22 52  1  0
 22 53  1  0
 25 54  1  0
 25 55  1  0
 27 56  1  0
 27 57  1  0
 28 58  1  0
 28 59  1  0
 30 60  1  0
 30 61  1  0
 30 62  1  0
 31 63  1  0
 31 64  1  0
 32 65  1  0
 32 66  1  0
 33 67  1  0
 34 68  1  0
 36 69  1  0
 37 70  1  0
 38 71  1  0
 39 72  1  0
 40 73  1  0
M  END
>  <meeko>  (1) 
{"is_sidechain": false}

>  <vina_affinity_kcal_mol>  (1) 
-10.081

>  <pose_rank>  (1) 
1

$$$$

     RDKit          3D

 73 77  0  0  0  0  0  0  0  0999 V2000
  -10.0070    7.3430  -21.7630 C   0  0  0  0  0  0  0  0  0  0  0  0
   -9.3220    6.6590  -20.7120 O   0  0  0  0  0  0  0  0  0  0  0  0
   -9.3220    7.3230  -19.5300 C   0  0  0  0  0  0  0  0  0  0  0  0
   -9.1720    8.5260  -19.3840 O   0  0  0  0  0  0  0  0  0  0  0  0
   -9.5360    6.3840  -18.3960 C   0  0  0  0  0  0  0  0  0  0  0  0
   -8.5680    5.4310  -18.0130 C   0  0  0  0  0  0  0  0  0  0  0  0
   -8.7950    4.5570  -16.9380 C   0  0  0  0  0  0  0  0  0  0  0  0
   -9.9970    4.6330  -16.2570 C   0  0  0  0  0  0  0  0  0  0  0  0
  -10.9380    5.5990  -16.6400 C   0  0  0  0  0  0  0  0  0  0  0  0
  -10.7430    6.4730  -17.6930 C   0  0  0  0  0  0  0  0  0  0  0  0
  -12.0530    5.5590  -15.8120 N   0  0  0  0  0  0  0  0  0  0  0  0
  -11.9200    4.5910  -14.8370 C   0  0  0  0  0  0  0  0  0  0  0  0
  -12.7100    4.3360  -13.9450 O   0  0  0  0  0  0  0  0  0  0  0  0
  -10.5890    3.9220  -15.1050 C   0  0  0  0  0  0  0  0  0  0  0  0
  -10.1810    2.8780  -14.3390 C   0  0  0  0  0  0  0  0  0  0  0  0
  -10.9020    2.4270  -13.2360 N   0  0  0  0  0  0  0  0  0  0  0  0
  -10.9930    1.2150  -12.5330 C   0  0  0  0  0  0  0  0  0  0  0  0
  -10.3370    0.0350  -12.8630 C   0  0  0  0  0  0  0  0  0  0  0  0
  -10.4520   -1.1200  -12.0660 C   0  0  0  0  0  0  0  0  0  0  0  0
  -11.2130   -1.1390  -10.8880 C   0  0  0  0  0  0  0  0  0  0  0  0
  -11.3430   -2.3410  -10.0910 N   0  0  0  0  0  0  0  0  0  0  0  0
  -10.2390   -2.6700   -9.1870 C   0  0  0  0  0  0  0  0  0  0  0  0
  -12.5240   -3.1170  -10.0960 C   0  0  0  0  0  0  0  0  0  0  0  0
  -12.9310   -3.7300  -11.0850 O   0  0  0  0  0  0  0  0  0  0  0  0
  -13.3060   -3.1510   -8.7600 C   0  0  0  0  0  0  0  0  0  0  0  0
  -13.8940   -1.8680   -8.3300 N   0  0  0  0  0  0  0  0  0  0  0  0
  -13.2660   -1.2880   -7.1390 C   0  0  0  0  0  0  0  0  0  0  0  0
  -13.7700    0.1530   -6.8470 C   0  0  0  0  0  0  0  0  0  0  0  0
  -15.1770    0.4480   -7.2050 N   0  0  0  0  0  0  0  0  0  0  0  0
  -15.2530    1.1710   -8.4750 C   0  0  0  0  0  0  0  0  0  0  0  0
  -15.9450   -0.8100   -7.2690 C   0  0  0  0  0  0  0  0  0  0  0  0
  -15.3620   -1.8980   -8.2120 C   0  0  0  0  0  0  0  0  0  0  0  0
  -11.8810    0.0470  -10.5660 C   0  0  0  0  0  0  0  0  0  0  0  0
  -11.7650    1.1960  -11.3640 C   0  0  0  0  0  0  0  0  0  0  0  0
   -8.8820    2.2500  -14.6450 C   0  0  0  0  0  0  0  0  0  0  0  0
   -8.7820    1.2650  -15.6410 C   0  0  0  0  0  0  0  0  0  0  0  0
   -7.5480    0.6810  -15.9350 C   0  0  0  0  0  0  0  0  0  0  0  0
   -6.4070    1.0770  -15.2380 C   0  0  0  0  0  0  0  0  0  0  0  0
   -6.4960    2.0530  -14.2440 C   0  0  0  0  0  0  0  0  0  0  0  0
   -7.7280    2.6380  -13.9490 C   0  0  0  0  0  0  0  0  0  0  0  0
  -10.7226    8.0575  -21.3301 H   0  0  0  0  0  0  0  0  0  0  0  0
   -9.2783    7.8846  -22.3840 H   0  0  0  0  0  0  0  0  0  0  0  0
  -10.5475    6.6135  -22.3840 H   0  0  0  0  0  0  0  0  0  0  0  0
   -7.6192    5.3720  -18.5664 H   0  0  0  0  0  0  0  0  0  0  0  0
   -8.0300    3.8240  -16.6421 H   0  0  0  0  0  0  0  0  0  0  0  0
  -11.5094    7.2124  -17.9687 H   0  0  0  0  0  0  0  0  0  0  0  0
  -12.8550    6.1680  -15.8700 H   0  0  0  0  0  0  0  0  0  0  0  0
  -11.5450    3.1380  -12.8670 H   0  0  0  0  0  0  0  0  0  0  0  0
   -9.7131    0.0027  -13.7684 H   0  0  0  0  0  0  0  0  0  0  0  0
   -9.9286   -2.0362  -12.3770 H   0  0  0  0  0  0  0  0  0  0  0  0
  -10.5761   -2.5695   -8.1448 H   0  0  0  0  0  0  0  0  0  0  0  0
   -9.9123   -3.7045   -9.3686 H   0  0  0  0  0  0  0  0  0  0  0  0
   -9.3993   -1.9831   -9.3686 H   0  0  0  0  0  0  0  0  0  0  0  0
  -14.1238   -3.8791   -8.8655 H   0  0  0  0  0  0  0  0  0  0  0  0
  -12.5690   -3.4168   -7.9879 H   0  0  0  0  0  0  0  0  0  0  0  0
  -13.4959   -1.9253   -6.2724 H   0  0  0  0  0  0  0  0  0  0  0  0
  -12.1828   -1.2341   -7.3230 H   0  0  0  0  0  0  0  0  0  0  0  0
  -13.6548    0.3349   -5.7683 H   0  0  0  0  0  0  0  0  0  0  0  0
  -13.1634    0.8085   -7.4891 H   0  0  0  0  0  0  0  0  0  0  0  0
  -15.3661    2.2473   -8.2780 H   0  0  0  0  0  0  0  0  0  0  0  0
  -14.3318    0.9985   -9.0508 H   0  0  0  0  0  0  0  0  0  0  0  0
  -16.1182    0.8107   -9.0508 H   0  0  0  0  0  0  0  0  0  0  0  0
  -15.9928   -1.2307   -6.2538 H   0  0  0  0  0  0  0  0  0  0  0  0
  -16.9287   -0.5444   -7.6835 H   0  0  0  0  0  0  0  0  0  0  0  0
  -15.6574   -2.8845   -7.8253 H   0  0  0  0  0  0  0  0  0  0  0  0
  -15.7650   -1.6969   -9.2156 H   0  0  0  0  0  0  0  0  0  0  0  0
  -12.5124    0.0801   -9.6658 H   0  0  0  0  0  0  0  0  0  0  0  0
  -12.2970    2.1102  -11.0620 H   0  0  0  0  0  0  0  0  0  0  0  0
   -9.6807    0.9517  -16.1926 H   0  0  0  0  0  0  0  0  0  0  0  0
   -7.4761   -0.0906  -16.7156 H   0  0  0  0  0  0  0  0  0  0  0  0
   -5.4345    0.6192  -15.4720 H   0  0  0  0  0  0  0  0  0  0  0  0
   -5.5950    2.3609  -13.6933 H   0  0  0  0  0  0  0  0  0  0  0  0
   -7.7944    3.4078  -13.1661 H   0  0  0  0  0  0  0  0  0  0  0  0
  1  2  1  0
  2  3  1  0
  3  4  2  0
  3  5  1  0
  5  6  1  0
  6  7  2  0
  7  8  1  0
  8  9  2  0
  9 10  1  0
  9 11  1  0
 11 12  1  0
 12 13  2  0
 12 14  1  0
 14 15  2  0
 15 16  1  0
 16 17  1  0
 17 18  1  0
 18 19  2  0
 19 20  1  0
 20 21  1  0
 21 22  1  0
 21 23  1  0
 23 24  2  0
 23 25  1  0
 25 26  1  0
 26 27  1  0
 27 28  1  0
 28 29  1  0
 29 30  1  0
 29 31  1  0
 31 32  1  0
 20 33  2  0
 33 34  1  0
 15 35  1  0
 35 36  2  0
 36 37  1  0
 37 38  2  0
 38 39  1  0
 39 40  2  0
 10  5  2  0
 34 17  2  0
 40 35  1  0
 14  8  1  0
 32 26  1  0
  1 41  1  0
  1 42  1  0
  1 43  1  0
  6 44  1  0
  7 45  1  0
 10 46  1  0
 11 47  1  0
 16 48  1  0
 18 49  1  0
 19 50  1  0
 22 51  1  0
 22 52  1  0
 22 53  1  0
 25 54  1  0
 25 55  1  0
 27 56  1  0
 27 57  1  0
 28 58  1  0
 28 59  1  0
 30 60  1  0
 30 61  1  0
 30 62  1  0
 31 63  1  0
 31 64  1  0
 32 65  1  0
 32 66  1  0
 33 67  1  0
 34 68  1  0
 36 69  1  0
 37 70  1  0
 38 71  1  0
 39 72  1  0
 40 73  1  0
M  END
>  <meeko>  (2) 
{"is_sidechain": false}

>  <vina_affinity_kcal_mol>  (2) 
-9.811

>  <pose_rank>  (2) 
2

$$$$

     RDKit          3D

 73 77  0  0  0  0  0  0  0  0999 V2000
  -10.2280    7.4060  -22.1580 C   0  0  0  0  0  0  0  0  0  0  0  0
   -9.5410    6.6980  -21.1240 O   0  0  0  0  0  0  0  0  0  0  0  0
   -9.4360    7.3870  -19.9610 C   0  0  0  0  0  0  0  0  0  0  0  0
   -9.2740    8.5920  -19.8550 O   0  0  0  0  0  0  0  0  0  0  0  0
   -9.5440    6.4720  -18.7930 C   0  0  0  0  0  0  0  0  0  0  0  0
   -8.5280    5.5520  -18.4580 C   0  0  0  0  0  0  0  0  0  0  0  0
   -8.6560    4.7010  -17.3490 C   0  0  0  0  0  0  0  0  0  0  0  0
   -9.8090    4.7660  -16.5850 C   0  0  0  0  0  0  0  0  0  0  0  0
  -10.7980    5.6990  -16.9230 C   0  0  0  0  0  0  0  0  0  0  0  0
  -10.7000    6.5510  -18.0070 C   0  0  0  0  0  0  0  0  0  0  0  0
  -11.8500    5.6550  -16.0160 N   0  0  0  0  0  0  0  0  0  0  0  0
  -11.6240    4.7160  -15.0300 C   0  0  0  0  0  0  0  0  0  0  0  0
  -12.3420    4.4650  -14.0790 O   0  0  0  0  0  0  0  0  0  0  0  0
  -10.2990    4.0710  -15.3770 C   0  0  0  0  0  0  0  0  0  0  0  0
   -9.8120    3.0570  -14.6180 C   0  0  0  0  0  0  0  0  0  0  0  0
  -10.4410    2.6170  -13.4560 N   0  0  0  0  0  0  0  0  0  0  0  0
  -10.6090    1.3750  -12.8220 C   0  0  0  0  0  0  0  0  0  0  0  0
   -9.8900    0.2190  -13.1010 C   0  0  0  0  0  0  0  0  0  0  0  0
  -10.0950   -0.9710  -12.3760 C   0  0  0  0  0  0  0  0  0  0  0  0
  -11.0180   -1.0490  -11.3220 C   0  0  0  0  0  0  0  0  0  0  0  0
  -11.2380   -2.2850  -10.6000 N   0  0  0  0  0  0  0  0  0  0  0  0
  -10.7530   -2.3530   -9.2210 C   0  0  0  0  0  0  0  0  0  0  0  0
  -11.9810   -3.3520  -11.1550 C   0  0  0  0  0  0  0  0  0  0  0  0
  -11.7400   -3.8480  -12.2570 O   0  0  0  0  0  0  0  0  0  0  0  0
  -13.1510   -3.8740  -10.2860 C   0  0  0  0  0  0  0  0  0  0  0  0
  -12.8710   -5.0880   -9.4960 N   0  0  0  0  0  0  0  0  0  0  0  0
  -12.9520   -6.3360  -10.2620 C   0  0  0  0  0  0  0  0  0  0  0  0
  -12.4460   -7.5610   -9.4510 C   0  0  0  0  0  0  0  0  0  0  0  0
  -12.6810   -7.5310   -7.9890 N   0  0  0  0  0  0  0  0  0  0  0  0
  -11.4690   -7.1350   -7.2720 C   0  0  0  0  0  0  0  0  0  0  0  0
  -13.7950   -6.6110   -7.6870 C   0  0  0  0  0  0  0  0  0  0  0  0
  -13.6350   -5.1690   -8.2400 C   0  0  0  0  0  0  0  0  0  0  0  0
  -11.7480    0.1130  -11.0520 C   0  0  0  0  0  0  0  0  0  0  0  0
  -11.5410    1.2960  -11.7790 C   0  0  0  0  0  0  0  0  0  0  0  0
   -8.5220    2.4510  -15.0020 C   0  0  0  0  0  0  0  0  0  0  0  0
   -7.3360    2.8230  -14.3490 C   0  0  0  0  0  0  0  0  0  0  0  0
   -6.1200    2.2390  -14.7070 C   0  0  0  0  0  0  0  0  0  0  0  0
   -6.0800    1.2790  -15.7190 C   0  0  0  0  0  0  0  0  0  0  0  0
   -7.2520    0.9050  -16.3760 C   0  0  0  0  0  0  0  0  0  0  0  0
   -8.4690    1.4870  -16.0190 C   0  0  0  0  0  0  0  0  0  0  0  0
  -10.9268    8.1262  -21.7074 H   0  0  0  0  0  0  0  0  0  0  0  0
   -9.4984    7.9438  -22.7812 H   0  0  0  0  0  0  0  0  0  0  0  0
  -10.7876    6.6929  -22.7812 H   0  0  0  0  0  0  0  0  0  0  0  0
   -7.6199    5.5007  -19.0766 H   0  0  0  0  0  0  0  0  0  0  0  0
   -7.8536    3.9942  -17.0911 H   0  0  0  0  0  0  0  0  0  0  0  0
  -11.5019    7.2658  -18.2438 H   0  0  0  0  0  0  0  0  0  0  0  0
  -12.6690    6.2440  -16.0310 H   0  0  0  0  0  0  0  0  0  0  0  0
  -10.9260    3.3730  -12.9590 H   0  0  0  0  0  0  0  0  0  0  0  0
   -9.1425    0.2337  -13.9078 H   0  0  0  0  0  0  0  0  0  0  0  0
   -9.5142   -1.8659  -12.6440 H   0  0  0  0  0  0  0  0  0  0  0  0
  -11.5993   -2.2343   -8.5284 H   0  0  0  0  0  0  0  0  0  0  0  0
  -10.2723   -3.3273   -9.0490 H   0  0  0  0  0  0  0  0  0  0  0  0
  -10.0229   -1.5484   -9.0490 H   0  0  0  0  0  0  0  0  0  0  0  0
  -13.4351   -3.0740   -9.5865 H   0  0  0  0  0  0  0  0  0  0  0  0
  -13.9466   -4.1536  -10.9923 H   0  0  0  0  0  0  0  0  0  0  0  0
  -14.0005   -6.5089  -10.5463 H   0  0  0  0  0  0  0  0  0  0  0  0
  -12.3075   -6.2295  -11.1470 H   0  0  0  0  0  0  0  0  0  0  0  0
  -12.9456   -8.4556   -9.8511 H   0  0  0  0  0  0  0  0  0  0  0  0
  -11.3524   -7.5556   -9.5693 H   0  0  0  0  0  0  0  0  0  0  0  0
  -11.6484   -7.1936   -6.1883 H   0  0  0  0  0  0  0  0  0  0  0  0
  -10.6447   -7.8105   -7.5443 H   0  0  0  0  0  0  0  0  0  0  0  0
  -11.2025   -6.1031   -7.5443 H   0  0  0  0  0  0  0  0  0  0  0  0
  -14.7139   -7.0386   -8.1145 H   0  0  0  0  0  0  0  0  0  0  0  0
  -13.8208   -6.5149   -6.5915 H   0  0  0  0  0  0  0  0  0  0  0  0
  -14.6381   -4.7542   -8.4185 H   0  0  0  0  0  0  0  0  0  0  0  0
  -13.0684   -4.6016   -7.4870 H   0  0  0  0  0  0  0  0  0  0  0  0
  -12.5020    0.0997  -10.2512 H   0  0  0  0  0  0  0  0  0  0  0  0
  -12.1292    2.1892  -11.5216 H   0  0  0  0  0  0  0  0  0  0  0  0
   -7.3654    3.5791  -13.5506 H   0  0  0  0  0  0  0  0  0  0  0  0
   -5.1942    2.5351  -14.1920 H   0  0  0  0  0  0  0  0  0  0  0  0
   -5.1222    0.8163  -15.9991 H   0  0  0  0  0  0  0  0  0  0  0  0
   -7.2170    0.1508  -17.1760 H   0  0  0  0  0  0  0  0  0  0  0  0
   -9.3916    1.1880  -16.5381 H   0  0  0  0  0  0  0  0  0  0  0  0
  1  2  1  0
  2  3  1  0
  3  4  2  0
  3  5  1  0
  5  6  1  0
  6  7  2  0
  7  8  1  0
  8  9  2  0
  9 10  1  0
  9 11  1  0
 11 12  1  0
 12 13  2  0
 12 14  1  0
 14 15  2  0
 15 16  1  0
 16 17  1  0
 17 18  1  0
 18 19  2  0
 19 20  1  0
 20 21  1  0
 21 22  1  0
 21 23  1  0
 23 24  2  0
 23 25  1  0
 25 26  1  0
 26 27  1  0
 27 28  1  0
 28 29  1  0
 29 30  1  0
 29 31  1  0
 31 32  1  0
 20 33  2  0
 33 34  1  0
 15 35  1  0
 35 36  2  0
 36 37  1  0
 37 38  2  0
 38 39  1  0
 39 40  2  0
 10  5  2  0
 34 17  2  0
 40 35  1  0
 14  8  1  0
 32 26  1  0
  1 41  1  0
  1 42  1  0
  1 43  1  0
  6 44  1  0
  7 45  1  0
 10 46  1  0
 11 47  1  0
 16 48  1  0
 18 49  1  0
 19 50  1  0
 22 51  1  0
 22 52  1  0
 22 53  1  0
 25 54  1  0
 25 55  1  0
 27 56  1  0
 27 57  1  0
 28 58  1  0
 28 59  1  0
 30 60  1  0
 30 61  1  0
 30 62  1  0
 31 63  1  0
 31 64  1  0
 32 65  1  0
 32 66  1  0
 33 67  1  0
 34 68  1  0
 36 69  1  0
 37 70  1  0
 38 71  1  0
 39 72  1  0
 40 73  1  0
M  END
>  <meeko>  (3) 
{"is_sidechain": false}

>  <vina_affinity_kcal_mol>  (3) 
-9.599

>  <pose_rank>  (3) 
3

$$$$

     RDKit          3D

 73 77  0  0  0  0  0  0  0  0999 V2000
   -9.9370    7.2930  -21.7710 C   0  0  0  0  0  0  0  0  0  0  0  0
   -9.4340    6.5150  -20.6840 O   0  0  0  0  0  0  0  0  0  0  0  0
   -9.3640    7.1900  -19.5100 C   0  0  0  0  0  0  0  0  0  0  0  0
   -9.1720    8.3880  -19.3830 O   0  0  0  0  0  0  0  0  0  0  0  0
   -9.5540    6.2660  -18.3580 C   0  0  0  0  0  0  0  0  0  0  0  0
   -8.5810    5.3150  -17.9850 C   0  0  0  0  0  0  0  0  0  0  0  0
   -8.7870    4.4560  -16.8930 C   0  0  0  0  0  0  0  0  0  0  0  0
   -9.9720    4.5470  -16.1850 C   0  0  0  0  0  0  0  0  0  0  0  0
  -10.9180    5.5120  -16.5590 C   0  0  0  0  0  0  0  0  0  0  0  0
  -10.7440    6.3700  -17.6280 C   0  0  0  0  0  0  0  0  0  0  0  0
  -12.0130    5.4890  -15.7040 N   0  0  0  0  0  0  0  0  0  0  0  0
  -11.8610    4.5340  -14.7190 C   0  0  0  0  0  0  0  0  0  0  0  0
  -12.6310    4.2940  -13.8060 O   0  0  0  0  0  0  0  0  0  0  0  0
  -10.5390    3.8550  -15.0090 C   0  0  0  0  0  0  0  0  0  0  0  0
  -10.1180    2.8200  -14.2400 C   0  0  0  0  0  0  0  0  0  0  0  0
  -10.8150    2.3870  -13.1130 N   0  0  0  0  0  0  0  0  0  0  0  0
  -10.9880    1.1560  -12.4610 C   0  0  0  0  0  0  0  0  0  0  0  0
  -10.3740   -0.0410  -12.8110 C   0  0  0  0  0  0  0  0  0  0  0  0
  -10.5720   -1.2180  -12.0640 C   0  0  0  0  0  0  0  0  0  0  0  0
  -11.3790   -1.2440  -10.9170 C   0  0  0  0  0  0  0  0  0  0  0  0
  -11.5940   -2.4670  -10.1710 N   0  0  0  0  0  0  0  0  0  0  0  0
  -12.7630   -3.2730  -10.5260 C   0  0  0  0  0  0  0  0  0  0  0  0
  -10.6660   -2.9290   -9.2110 C   0  0  0  0  0  0  0  0  0  0  0  0
   -9.5590   -3.3890   -9.5010 O   0  0  0  0  0  0  0  0  0  0  0  0
  -11.1280   -2.8350   -7.7360 C   0  0  0  0  0  0  0  0  0  0  0  0
  -11.9660   -1.6690   -7.4010 N   0  0  0  0  0  0  0  0  0  0  0  0
  -11.2360   -0.5640   -6.7720 C   0  0  0  0  0  0  0  0  0  0  0  0
  -12.1060    0.7150   -6.6300 C   0  0  0  0  0  0  0  0  0  0  0  0
  -13.5540    0.5090   -6.3960 N   0  0  0  0  0  0  0  0  0  0  0  0
  -14.3140    0.6840   -7.6350 C   0  0  0  0  0  0  0  0  0  0  0  0
  -13.7760   -0.8340   -5.8280 C   0  0  0  0  0  0  0  0  0  0  0  0
  -13.1870   -2.0110   -6.6520 C   0  0  0  0  0  0  0  0  0  0  0  0
  -12.0040   -0.0410  -10.5740 C   0  0  0  0  0  0  0  0  0  0  0  0
  -11.8060    1.1300  -11.3230 C   0  0  0  0  0  0  0  0  0  0  0  0
   -8.8290    2.1810  -14.5680 C   0  0  0  0  0  0  0  0  0  0  0  0
   -8.7590    1.1760  -15.5460 C   0  0  0  0  0  0  0  0  0  0  0  0
   -7.5350    0.5830  -15.8610 C   0  0  0  0  0  0  0  0  0  0  0  0
   -6.3740    0.9890  -15.2030 C   0  0  0  0  0  0  0  0  0  0  0  0
   -6.4340    1.9840  -14.2270 C   0  0  0  0  0  0  0  0  0  0  0  0
   -7.6560    2.5790  -13.9100 C   0  0  0  0  0  0  0  0  0  0  0  0
  -10.4947    8.1556  -21.3773 H   0  0  0  0  0  0  0  0  0  0  0  0
   -9.0976    7.6490  -22.3864 H   0  0  0  0  0  0  0  0  0  0  0  0
  -10.6061    6.6737  -22.3864 H   0  0  0  0  0  0  0  0  0  0  0  0
   -7.6453    5.2450  -18.5590 H   0  0  0  0  0  0  0  0  0  0  0  0
   -8.0188    3.7230  -16.6055 H   0  0  0  0  0  0  0  0  0  0  0  0
  -11.5136    7.1089  -17.8960 H   0  0  0  0  0  0  0  0  0  0  0  0
  -12.8140    6.1010  -15.7520 H   0  0  0  0  0  0  0  0  0  0  0  0
  -11.3580    3.1380  -12.6720 H   0  0  0  0  0  0  0  0  0  0  0  0
   -9.7174   -0.0694  -13.6931 H   0  0  0  0  0  0  0  0  0  0  0  0
  -10.0787   -2.1456  -12.3899 H   0  0  0  0  0  0  0  0  0  0  0  0
  -13.2629   -3.6177   -9.6088 H   0  0  0  0  0  0  0  0  0  0  0  0
  -13.4621   -2.6641  -11.1180 H   0  0  0  0  0  0  0  0  0  0  0  0
  -12.4425   -4.1430  -11.1180 H   0  0  0  0  0  0  0  0  0  0  0  0
  -11.7040   -3.7429   -7.5039 H   0  0  0  0  0  0  0  0  0  0  0  0
  -10.2095   -2.7247   -7.1408 H   0  0  0  0  0  0  0  0  0  0  0  0
  -10.9084   -0.8814   -5.7710 H   0  0  0  0  0  0  0  0  0  0  0  0
  -10.3796   -0.3174   -7.4168 H   0  0  0  0  0  0  0  0  0  0  0  0
  -11.7104    1.2956   -5.7836 H   0  0  0  0  0  0  0  0  0  0  0  0
  -12.0386    1.2215   -7.6041 H   0  0  0  0  0  0  0  0  0  0  0  0
  -15.3597    0.9248   -7.3928 H   0  0  0  0  0  0  0  0  0  0  0  0
  -13.8752    1.5046   -8.2215 H   0  0  0  0  0  0  0  0  0  0  0  0
  -14.2782   -0.2459   -8.2215 H   0  0  0  0  0  0  0  0  0  0  0  0
  -13.3203   -0.8588   -4.8272 H   0  0  0  0  0  0  0  0  0  0  0  0
  -14.8657   -0.9840   -5.8212 H   0  0  0  0  0  0  0  0  0  0  0  0
  -12.9490   -2.8322   -5.9599 H   0  0  0  0  0  0  0  0  0  0  0  0
  -13.9479   -2.2894   -7.3960 H   0  0  0  0  0  0  0  0  0  0  0  0
  -12.6666   -0.0114   -9.6964 H   0  0  0  0  0  0  0  0  0  0  0  0
  -12.3085    2.0560  -11.0068 H   0  0  0  0  0  0  0  0  0  0  0  0
   -9.6731    0.8543  -16.0666 H   0  0  0  0  0  0  0  0  0  0  0  0
   -7.4862   -0.2041  -16.6278 H   0  0  0  0  0  0  0  0  0  0  0  0
   -5.4094    0.5238  -15.4541 H   0  0  0  0  0  0  0  0  0  0  0  0
   -5.5176    2.2998  -13.7069 H   0  0  0  0  0  0  0  0  0  0  0  0
   -7.6994    3.3638  -13.1405 H   0  0  0  0  0  0  0  0  0  0  0  0
  1  2  1  0
  2  3  1  0
  3  4  2  0
  3  5  1  0
  5  6  1  0
  6  7  2  0
  7  8  1  0
  8  9  2  0
  9 10  1  0
  9 11  1  0
 11 12  1  0
 12 13  2  0
 12 14  1  0
 14 15  2  0
 15 16  1  0
 16 17  1  0
 17 18  1  0
 18 19  2  0
 19 20  1  0
 20 21  1  0
 21 22  1  0
 21 23  1  0
 23 24  2  0
 23 25  1  0
 25 26  1  0
 26 27  1  0
 27 28  1  0
 28 29  1  0
 29 30  1  0
 29 31  1  0
 31 32  1  0
 20 33  2  0
 33 34  1  0
 15 35  1  0
 35 36  2  0
 36 37  1  0
 37 38  2  0
 38 39  1  0
 39 40  2  0
 10  5  2  0
 34 17  2  0
 40 35  1  0
 14  8  1  0
 32 26  1  0
  1 41  1  0
  1 42  1  0
  1 43  1  0
  6 44  1  0
  7 45  1  0
 10 46  1  0
 11 47  1  0
 16 48  1  0
 18 49  1  0
 19 50  1  0
 22 51  1  0
 22 52  1  0
 22 53  1  0
 25 54  1  0
 25 55  1  0
 27 56  1  0
 27 57  1  0
 28 58  1  0
 28 59  1  0
 30 60  1  0
 30 61  1  0
 30 62  1  0
 31 63  1  0
 31 64  1  0
 32 65  1  0
 32 66  1  0
 33 67  1  0
 34 68  1  0
 36 69  1  0
 37 70  1  0
 38 71  1  0
 39 72  1  0
 40 73  1  0
M  END
>  <meeko>  (4) 
{"is_sidechain": false}

>  <vina_affinity_kcal_mol>  (4) 
-9.561

>  <pose_rank>  (4) 
4

$$$$

     RDKit          3D

 73 77  0  0  0  0  0  0  0  0999 V2000
  -16.6600   -0.9760   -5.8760 C   0  0  0  0  0  0  0  0  0  0  0  0
  -15.5460   -0.4560   -6.6040 O   0  0  0  0  0  0  0  0  0  0  0  0
  -15.8870    0.4220   -7.5800 C   0  0  0  0  0  0  0  0  0  0  0  0
  -16.9020    1.0980   -7.6110 O   0  0  0  0  0  0  0  0  0  0  0  0
  -14.8440    0.4650   -8.6400 C   0  0  0  0  0  0  0  0  0  0  0  0
  -14.8270    1.4580   -9.6420 C   0  0  0  0  0  0  0  0  0  0  0  0
  -13.8290    1.4750  -10.6310 C   0  0  0  0  0  0  0  0  0  0  0  0
  -12.8580    0.4890  -10.6170 C   0  0  0  0  0  0  0  0  0  0  0  0
  -12.8800   -0.4770   -9.6020 C   0  0  0  0  0  0  0  0  0  0  0  0
  -13.8480   -0.5200   -8.6160 C   0  0  0  0  0  0  0  0  0  0  0  0
  -11.8020   -1.3460   -9.7220 N   0  0  0  0  0  0  0  0  0  0  0  0
  -11.0040   -1.0100  -10.7970 C   0  0  0  0  0  0  0  0  0  0  0  0
   -9.9720   -1.5580  -11.1420 O   0  0  0  0  0  0  0  0  0  0  0  0
  -11.6750    0.1800  -11.4480 C   0  0  0  0  0  0  0  0  0  0  0  0
  -11.1570    0.7250  -12.5780 C   0  0  0  0  0  0  0  0  0  0  0  0
   -9.9600    0.2900  -13.1420 N   0  0  0  0  0  0  0  0  0  0  0  0
   -8.9430    0.8870  -13.9040 C   0  0  0  0  0  0  0  0  0  0  0  0
   -8.1190    1.9250  -13.4860 C   0  0  0  0  0  0  0  0  0  0  0  0
   -7.0900    2.4270  -14.3060 C   0  0  0  0  0  0  0  0  0  0  0  0
   -6.8260    1.8950  -15.5770 C   0  0  0  0  0  0  0  0  0  0  0  0
   -5.7810    2.4360  -16.4210 N   0  0  0  0  0  0  0  0  0  0  0  0
   -4.6510    1.5610  -16.7350 C   0  0  0  0  0  0  0  0  0  0  0  0
   -5.8840    3.7170  -17.0090 C   0  0  0  0  0  0  0  0  0  0  0  0
   -5.1490    4.6620  -16.7140 O   0  0  0  0  0  0  0  0  0  0  0  0
   -7.0040    3.8790  -18.0650 C   0  0  0  0  0  0  0  0  0  0  0  0
   -8.0810    4.8240  -17.7160 N   0  0  0  0  0  0  0  0  0  0  0  0
   -9.2490    4.2000  -17.0860 C   0  0  0  0  0  0  0  0  0  0  0  0
  -10.2600    5.2500  -16.5460 C   0  0  0  0  0  0  0  0  0  0  0  0
  -10.3740    6.5140  -17.3090 N   0  0  0  0  0  0  0  0  0  0  0  0
   -9.6170    7.5860  -16.6590 C   0  0  0  0  0  0  0  0  0  0  0  0
   -9.9030    6.3010  -18.6910 C   0  0  0  0  0  0  0  0  0  0  0  0
   -8.4710    5.7150  -18.8230 C   0  0  0  0  0  0  0  0  0  0  0  0
   -7.6640    0.8580  -15.9990 C   0  0  0  0  0  0  0  0  0  0  0  0
   -8.6900    0.3620  -15.1790 C   0  0  0  0  0  0  0  0  0  0  0  0
  -11.8530    1.8770  -13.1840 C   0  0  0  0  0  0  0  0  0  0  0  0
  -13.0120    1.6860  -13.9520 C   0  0  0  0  0  0  0  0  0  0  0  0
  -13.6730    2.7800  -14.5140 C   0  0  0  0  0  0  0  0  0  0  0  0
  -13.1820    4.0700  -14.3130 C   0  0  0  0  0  0  0  0  0  0  0  0
  -12.0280    4.2690  -13.5540 C   0  0  0  0  0  0  0  0  0  0  0  0
  -11.3660    3.1770  -12.9900 C   0  0  0  0  0  0  0  0  0  0  0  0
  -16.4671   -0.8859   -4.7968 H   0  0  0  0  0  0  0  0  0  0  0  0
  -17.5652   -0.4074   -6.1354 H   0  0  0  0  0  0  0  0  0  0  0  0
  -16.8054   -2.0351   -6.1354 H   0  0  0  0  0  0  0  0  0  0  0  0
  -15.6084    2.2322   -9.6492 H   0  0  0  0  0  0  0  0  0  0  0  0
  -13.8197    2.2585  -11.4030 H   0  0  0  0  0  0  0  0  0  0  0  0
  -13.8366   -1.2998   -7.8402 H   0  0  0  0  0  0  0  0  0  0  0  0
  -11.5870   -2.1100   -9.1000 H   0  0  0  0  0  0  0  0  0  0  0  0
   -9.7960   -0.7130  -12.9960 H   0  0  0  0  0  0  0  0  0  0  0  0
   -8.2743    2.3654  -12.4900 H   0  0  0  0  0  0  0  0  0  0  0  0
   -6.4746    3.2615  -13.9388 H   0  0  0  0  0  0  0  0  0  0  0  0
   -4.1919    1.2055  -15.8008 H   0  0  0  0  0  0  0  0  0  0  0  0
   -5.0057    0.6997  -17.3201 H   0  0  0  0  0  0  0  0  0  0  0  0
   -3.9059    2.1200  -17.3201 H   0  0  0  0  0  0  0  0  0  0  0  0
   -6.5394    4.2264  -18.9996 H   0  0  0  0  0  0  0  0  0  0  0  0
   -7.4850    2.8930  -18.1452 H   0  0  0  0  0  0  0  0  0  0  0  0
   -9.7576    3.5695  -17.8302 H   0  0  0  0  0  0  0  0  0  0  0  0
   -8.8929    3.6057  -16.2316 H   0  0  0  0  0  0  0  0  0  0  0  0
  -11.2539    4.7789  -16.5301 H   0  0  0  0  0  0  0  0  0  0  0  0
   -9.8753    5.5415  -15.5576 H   0  0  0  0  0  0  0  0  0  0  0  0
   -9.6930    7.4784  -15.5669 H   0  0  0  0  0  0  0  0  0  0  0  0
   -8.5610    7.5243  -16.9609 H   0  0  0  0  0  0  0  0  0  0  0  0
  -10.0284    8.5605  -16.9609 H   0  0  0  0  0  0  0  0  0  0  0  0
  -10.6003    5.6078  -19.1843 H   0  0  0  0  0  0  0  0  0  0  0  0
   -9.8673    7.2971  -19.1563 H   0  0  0  0  0  0  0  0  0  0  0  0
   -8.4166    5.1439  -19.7616 H   0  0  0  0  0  0  0  0  0  0  0  0
   -7.7764    6.5677  -18.8036 H   0  0  0  0  0  0  0  0  0  0  0  0
   -7.5157    0.4205  -16.9973 H   0  0  0  0  0  0  0  0  0  0  0  0
   -9.3149   -0.4644  -15.5485 H   0  0  0  0  0  0  0  0  0  0  0  0
  -13.4015    0.6698  -14.1119 H   0  0  0  0  0  0  0  0  0  0  0  0
  -14.5809    2.6245  -15.1152 H   0  0  0  0  0  0  0  0  0  0  0  0
  -13.7051    4.9316  -14.7534 H   0  0  0  0  0  0  0  0  0  0  0  0
  -11.6399    5.2867  -13.4001 H   0  0  0  0  0  0  0  0  0  0  0  0
  -10.4578    3.3375  -12.3905 H   0  0  0  0  0  0  0  0  0  0  0  0
  1  2  1  0
  2  3  1  0
  3  4  2  0
  3  5  1  0
  5  6  1  0
  6  7  2  0
  7  8  1  0
  8  9  2  0
  9 10  1  0
  9 11  1  0
 11 12  1  0
 12 13  2  0
 12 14  1  0
 14 15  2  0
 15 16  1  0
 16 17  1  0
 17 18  1  0
 18 19  2  0
 19 20  1  0
 20 21  1  0
 21 22  1  0
 21 23  1  0
 23 24  2  0
 23 25  1  0
 25 26  1  0
 26 27  1  0
 27 28  1  0
 28 29  1  0
 29 30  1  0
 29 31  1  0
 31 32  1  0
 20 33  2  0
 33 34  1  0
 15 35  1  0
 35 36  2  0
 36 37  1  0
 37 38  2  0
 38 39  1  0
 39 40  2  0
 10  5  2  0
 34 17  2  0
 40 35  1  0
 14  8  1  0
 32 26  1  0
  1 41  1  0
  1 42  1  0
  1 43  1  0
  6 44  1  0
  7 45  1  0
 10 46  1  0
 11 47  1  0
 16 48  1  0
 18 49  1  0
 19 50  1  0
 22 51  1  0
 22 52  1  0
 22 53  1  0
 25 54  1  0
 25 55  1  0
 27 56  1  0
 27 57  1  0
 28 58  1  0
 28 59  1  0
 30 60  1  0
 30 61  1  0
 30 62  1  0
 31 63  1  0
 31 64  1  0
 32 65  1  0
 32 66  1  0
 33 67  1  0
 34 68  1  0
 36 69  1  0
 37 70  1  0
 38 71  1  0
 39 72  1  0
 40 73  1  0
M  END
>  <meeko>  (5) 
{"is_sidechain": false}

>  <vina_affinity_kcal_mol>  (5) 
-9.388

>  <pose_rank>  (5) 
5

$$$$

     RDKit          3D

 73 77  0  0  0  0  0  0  0  0999 V2000
  -10.3030    7.1730  -22.0440 C   0  0  0  0  0  0  0  0  0  0  0  0
   -9.5670    6.4830  -21.0320 O   0  0  0  0  0  0  0  0  0  0  0  0
   -9.8160    6.9220  -19.7740 C   0  0  0  0  0  0  0  0  0  0  0  0
  -10.3460    7.9810  -19.4760 O   0  0  0  0  0  0  0  0  0  0  0  0
   -9.3530    5.9300  -18.7660 C   0  0  0  0  0  0  0  0  0  0  0  0
  -10.2350    5.3140  -17.8520 C   0  0  0  0  0  0  0  0  0  0  0  0
   -9.7700    4.3800  -16.9120 C   0  0  0  0  0  0  0  0  0  0  0  0
   -8.4200    4.0740  -16.8840 C   0  0  0  0  0  0  0  0  0  0  0  0
   -7.5640    4.6820  -17.8120 C   0  0  0  0  0  0  0  0  0  0  0  0
   -7.9910    5.6040  -18.7490 C   0  0  0  0  0  0  0  0  0  0  0  0
   -6.2640    4.2140  -17.6670 N   0  0  0  0  0  0  0  0  0  0  0  0
   -6.1790    3.2740  -16.6590 C   0  0  0  0  0  0  0  0  0  0  0  0
   -5.1860    2.6590  -16.3130 O   0  0  0  0  0  0  0  0  0  0  0  0
   -7.5750    3.1670  -16.0820 C   0  0  0  0  0  0  0  0  0  0  0  0
   -7.8170    2.3510  -15.0250 C   0  0  0  0  0  0  0  0  0  0  0  0
   -6.8430    1.5190  -14.4780 N   0  0  0  0  0  0  0  0  0  0  0  0
   -6.4640    0.1790  -14.6540 C   0  0  0  0  0  0  0  0  0  0  0  0
   -6.6440   -0.5700  -15.8120 C   0  0  0  0  0  0  0  0  0  0  0  0
   -6.1840   -1.8970  -15.9120 C   0  0  0  0  0  0  0  0  0  0  0  0
   -5.5020   -2.5280  -14.8620 C   0  0  0  0  0  0  0  0  0  0  0  0
   -5.0560   -3.9020  -14.9680 N   0  0  0  0  0  0  0  0  0  0  0  0
   -5.8840   -4.9280  -14.3330 C   0  0  0  0  0  0  0  0  0  0  0  0
   -3.9280   -4.2640  -15.7390 C   0  0  0  0  0  0  0  0  0  0  0  0
   -3.9180   -5.2100  -16.5280 O   0  0  0  0  0  0  0  0  0  0  0  0
   -2.6670   -3.3910  -15.5270 C   0  0  0  0  0  0  0  0  0  0  0  0
   -2.4800   -2.2910  -16.4910 N   0  0  0  0  0  0  0  0  0  0  0  0
   -1.3980   -2.5120  -17.4550 C   0  0  0  0  0  0  0  0  0  0  0  0
   -1.3740   -1.4350  -18.5750 C   0  0  0  0  0  0  0  0  0  0  0  0
   -1.8050   -0.0710  -18.1920 N   0  0  0  0  0  0  0  0  0  0  0  0
   -3.1830    0.1800  -18.6140 C   0  0  0  0  0  0  0  0  0  0  0  0
   -1.6620    0.1010  -16.7340 C   0  0  0  0  0  0  0  0  0  0  0  0
   -2.3870   -0.9610  -15.8640 C   0  0  0  0  0  0  0  0  0  0  0  0
   -5.3330   -1.7770  -13.6940 C   0  0  0  0  0  0  0  0  0  0  0  0
   -5.7950   -0.4540  -13.5980 C   0  0  0  0  0  0  0  0  0  0  0  0
   -9.1910    2.2880  -14.4890 C   0  0  0  0  0  0  0  0  0  0  0  0
   -9.7180    3.3590  -13.7490 C   0  0  0  0  0  0  0  0  0  0  0  0
  -11.0220    3.2990  -13.2540 C   0  0  0  0  0  0  0  0  0  0  0  0
  -11.8070    2.1720  -13.4930 C   0  0  0  0  0  0  0  0  0  0  0  0
  -11.2910    1.1010  -14.2240 C   0  0  0  0  0  0  0  0  0  0  0  0
   -9.9880    1.1580  -14.7210 C   0  0  0  0  0  0  0  0  0  0  0  0
  -11.0277    7.8524  -21.5715 H   0  0  0  0  0  0  0  0  0  0  0  0
   -9.6097    7.7541  -22.6698 H   0  0  0  0  0  0  0  0  0  0  0  0
  -10.8382    6.4437  -22.6698 H   0  0  0  0  0  0  0  0  0  0  0  0
  -11.3045    5.5699  -17.8765 H   0  0  0  0  0  0  0  0  0  0  0  0
  -10.4669    3.8994  -16.2095 H   0  0  0  0  0  0  0  0  0  0  0  0
   -7.2861    6.0654  -19.4563 H   0  0  0  0  0  0  0  0  0  0  0  0
   -5.4720    4.4820  -18.2310 H   0  0  0  0  0  0  0  0  0  0  0  0
   -6.2910    1.9840  -13.7470 H   0  0  0  0  0  0  0  0  0  0  0  0
   -7.1584   -0.1144  -16.6710 H   0  0  0  0  0  0  0  0  0  0  0  0
   -6.3652   -2.4556  -16.8421 H   0  0  0  0  0  0  0  0  0  0  0  0
   -5.8088   -4.8349  -13.2395 H   0  0  0  0  0  0  0  0  0  0  0  0
   -6.9317   -4.7961  -14.6411 H   0  0  0  0  0  0  0  0  0  0  0  0
   -5.5338   -5.9242  -14.6411 H   0  0  0  0  0  0  0  0  0  0  0  0
   -2.7258   -2.9515  -14.5203 H   0  0  0  0  0  0  0  0  0  0  0  0
   -1.8092   -4.0643  -15.6711 H   0  0  0  0  0  0  0  0  0  0  0  0
   -0.4373   -2.4867  -16.9198 H   0  0  0  0  0  0  0  0  0  0  0  0
   -1.5678   -3.4885  -17.9320 H   0  0  0  0  0  0  0  0  0  0  0  0
   -0.3421   -1.3661  -18.9498 H   0  0  0  0  0  0  0  0  0  0  0  0
   -2.1099   -1.7737  -19.3191 H   0  0  0  0  0  0  0  0  0  0  0  0
   -3.8227    0.2965  -17.7268 H   0  0  0  0  0  0  0  0  0  0  0  0
   -3.2203    1.0997  -19.2163 H   0  0  0  0  0  0  0  0  0  0  0  0
   -3.5422   -0.6675  -19.2163 H   0  0  0  0  0  0  0  0  0  0  0  0
   -0.5897    0.0638  -16.4914 H   0  0  0  0  0  0  0  0  0  0  0  0
   -2.1363    1.0642  -16.4944 H   0  0  0  0  0  0  0  0  0  0  0  0
   -1.8386   -1.0637  -14.9160 H   0  0  0  0  0  0  0  0  0  0  0  0
   -3.4179   -0.6045  -15.7222 H   0  0  0  0  0  0  0  0  0  0  0  0
   -4.8265   -2.2331  -12.8306 H   0  0  0  0  0  0  0  0  0  0  0  0
   -5.6263    0.1027  -12.6644 H   0  0  0  0  0  0  0  0  0  0  0  0
   -9.1005    4.2492  -13.5585 H   0  0  0  0  0  0  0  0  0  0  0  0
  -11.4300    4.1409  -12.6754 H   0  0  0  0  0  0  0  0  0  0  0  0
  -12.8352    2.1268  -13.1046 H   0  0  0  0  0  0  0  0  0  0  0  0
  -11.9114    0.2116  -14.4085 H   0  0  0  0  0  0  0  0  0  0  0  0
   -9.5845    0.3125  -15.2974 H   0  0  0  0  0  0  0  0  0  0  0  0
  1  2  1  0
  2  3  1  0
  3  4  2  0
  3  5  1  0
  5  6  1  0
  6  7  2  0
  7  8  1  0
  8  9  2  0
  9 10  1  0
  9 11  1  0
 11 12  1  0
 12 13  2  0
 12 14  1  0
 14 15  2  0
 15 16  1  0
 16 17  1  0
 17 18  1  0
 18 19  2  0
 19 20  1  0
 20 21  1  0
 21 22  1  0
 21 23  1  0
 23 24  2  0
 23 25  1  0
 25 26  1  0
 26 27  1  0
 27 28  1  0
 28 29  1  0
 29 30  1  0
 29 31  1  0
 31 32  1  0
 20 33  2  0
 33 34  1  0
 15 35  1  0
 35 36  2  0
 36 37  1  0
 37 38  2  0
 38 39  1  0
 39 40  2  0
 10  5  2  0
 34 17  2  0
 40 35  1  0
 14  8  1  0
 32 26  1  0
  1 41  1  0
  1 42  1  0
  1 43  1  0
  6 44  1  0
  7 45  1  0
 10 46  1  0
 11 47  1  0
 16 48  1  0
 18 49  1  0
 19 50  1  0
 22 51  1  0
 22 52  1  0
 22 53  1  0
 25 54  1  0
 25 55  1  0
 27 56  1  0
 27 57  1  0
 28 58  1  0
 28 59  1  0
 30 60  1  0
 30 61  1  0
 30 62  1  0
 31 63  1  0
 31 64  1  0
 32 65  1  0
 32 66  1  0
 33 67  1  0
 34 68  1  0
 36 69  1  0
 37 70  1  0
 38 71  1  0
 39 72  1  0
 40 73  1  0
M  END
>  <meeko>  (6) 
{"is_sidechain": false}

>  <vina_affinity_kcal_mol>  (6) 
-9.192

>  <pose_rank>  (6) 
6

$$$$

     RDKit          3D

 73 77  0  0  0  0  0  0  0  0999 V2000
   -9.3060    8.7890  -19.3170 C   0  0  0  0  0  0  0  0  0  0  0  0
  -10.1320    7.6260  -19.4050 O   0  0  0  0  0  0  0  0  0  0  0  0
   -9.4640    6.4610  -19.2190 C   0  0  0  0  0  0  0  0  0  0  0  0
   -8.5480    6.0420  -19.9090 O   0  0  0  0  0  0  0  0  0  0  0  0
   -9.9970    5.7300  -18.0370 C   0  0  0  0  0  0  0  0  0  0  0  0
   -9.2630    4.7190  -17.3810 C   0  0  0  0  0  0  0  0  0  0  0  0
   -9.7900    4.0460  -16.2670 C   0  0  0  0  0  0  0  0  0  0  0  0
  -11.0560    4.3810  -15.8210 C   0  0  0  0  0  0  0  0  0  0  0  0
  -11.7620    5.4010  -16.4740 C   0  0  0  0  0  0  0  0  0  0  0  0
  -11.2700    6.0810  -17.5720 C   0  0  0  0  0  0  0  0  0  0  0  0
  -12.9840    5.6320  -15.8550 N   0  0  0  0  0  0  0  0  0  0  0  0
  -13.1590    4.8030  -14.7640 C   0  0  0  0  0  0  0  0  0  0  0  0
  -14.1080    4.7880  -14.0010 O   0  0  0  0  0  0  0  0  0  0  0  0
  -11.9250    3.9280  -14.7140 C   0  0  0  0  0  0  0  0  0  0  0  0
  -11.8110    2.9580  -13.7720 C   0  0  0  0  0  0  0  0  0  0  0  0
  -12.7570    2.7710  -12.7670 N   0  0  0  0  0  0  0  0  0  0  0  0
  -12.9240    1.8570  -11.7140 C   0  0  0  0  0  0  0  0  0  0  0  0
  -14.1180    1.5890  -11.0550 C   0  0  0  0  0  0  0  0  0  0  0  0
  -14.1980    0.6160  -10.0400 C   0  0  0  0  0  0  0  0  0  0  0  0
  -13.0870   -0.1490   -9.6540 C   0  0  0  0  0  0  0  0  0  0  0  0
  -13.1770   -1.1300   -8.5920 N   0  0  0  0  0  0  0  0  0  0  0  0
  -12.0440   -1.2270   -7.6710 C   0  0  0  0  0  0  0  0  0  0  0  0
  -14.3460   -1.8940   -8.3780 C   0  0  0  0  0  0  0  0  0  0  0  0
  -15.1120   -1.7140   -7.4290 O   0  0  0  0  0  0  0  0  0  0  0  0
  -14.6180   -3.0060   -9.4200 C   0  0  0  0  0  0  0  0  0  0  0  0
  -13.8460   -4.2500   -9.2440 N   0  0  0  0  0  0  0  0  0  0  0  0
  -13.6690   -4.6560   -7.8460 C   0  0  0  0  0  0  0  0  0  0  0  0
  -13.0390   -6.0710   -7.7170 C   0  0  0  0  0  0  0  0  0  0  0  0
  -12.0730   -6.4650   -8.7670 N   0  0  0  0  0  0  0  0  0  0  0  0
  -12.7040   -7.3380   -9.7580 C   0  0  0  0  0  0  0  0  0  0  0  0
  -11.5200   -5.2560   -9.4080 C   0  0  0  0  0  0  0  0  0  0  0  0
  -12.5710   -4.2680   -9.9810 C   0  0  0  0  0  0  0  0  0  0  0  0
  -11.8850    0.1320  -10.3110 C   0  0  0  0  0  0  0  0  0  0  0  0
  -11.8100    1.1050  -11.3210 C   0  0  0  0  0  0  0  0  0  0  0  0
  -10.5950    2.1220  -13.7700 C   0  0  0  0  0  0  0  0  0  0  0  0
  -10.6190    0.8270  -14.3120 C   0  0  0  0  0  0  0  0  0  0  0  0
   -9.4630    0.0430  -14.3180 C   0  0  0  0  0  0  0  0  0  0  0  0
   -8.2770    0.5480  -13.7840 C   0  0  0  0  0  0  0  0  0  0  0  0
   -8.2440    1.8320  -13.2410 C   0  0  0  0  0  0  0  0  0  0  0  0
   -9.3980    2.6180  -13.2340 C   0  0  0  0  0  0  0  0  0  0  0  0
   -9.1311    9.0353  -18.2593 H   0  0  0  0  0  0  0  0  0  0  0  0
   -8.3433    8.5933  -19.8120 H   0  0  0  0  0  0  0  0  0  0  0  0
   -9.8078    9.6335  -19.8120 H   0  0  0  0  0  0  0  0  0  0  0  0
   -8.2608    4.4536  -17.7486 H   0  0  0  0  0  0  0  0  0  0  0  0
   -9.2060    3.2654  -15.7574 H   0  0  0  0  0  0  0  0  0  0  0  0
  -11.8580    6.8703  -18.0633 H   0  0  0  0  0  0  0  0  0  0  0  0
  -13.6610    6.3300  -16.1240 H   0  0  0  0  0  0  0  0  0  0  0  0
  -13.5350    3.4390  -12.8270 H   0  0  0  0  0  0  0  0  0  0  0  0
  -15.0222    2.1504  -11.3329 H   0  0  0  0  0  0  0  0  0  0  0  0
  -15.1609    0.4507   -9.5344 H   0  0  0  0  0  0  0  0  0  0  0  0
  -12.4105   -1.1956   -6.6343 H   0  0  0  0  0  0  0  0  0  0  0  0
  -11.5115   -2.1740   -7.8432 H   0  0  0  0  0  0  0  0  0  0  0  0
  -11.3583   -0.3843   -7.8432 H   0  0  0  0  0  0  0  0  0  0  0  0
  -15.6867   -3.2616   -9.3703 H   0  0  0  0  0  0  0  0  0  0  0  0
  -14.3029   -2.5922  -10.3893 H   0  0  0  0  0  0  0  0  0  0  0  0
  -13.0109   -3.9292   -7.3473 H   0  0  0  0  0  0  0  0  0  0  0  0
  -14.6633   -4.6866   -7.3764 H   0  0  0  0  0  0  0  0  0  0  0  0
  -12.5175   -6.1171   -6.7496 H   0  0  0  0  0  0  0  0  0  0  0  0
  -13.8798   -6.7730   -7.8185 H   0  0  0  0  0  0  0  0  0  0  0  0
  -13.2734   -8.1258   -9.2430 H   0  0  0  0  0  0  0  0  0  0  0  0
  -13.3843   -6.7460  -10.3879 H   0  0  0  0  0  0  0  0  0  0  0  0
  -11.9285   -7.7983  -10.3879 H   0  0  0  0  0  0  0  0  0  0  0  0
  -10.9212   -4.7179   -8.6584 H   0  0  0  0  0  0  0  0  0  0  0  0
  -10.9345   -5.6098  -10.2694 H   0  0  0  0  0  0  0  0  0  0  0  0
  -12.1428   -3.2551   -9.9548 H   0  0  0  0  0  0  0  0  0  0  0  0
  -12.8003   -4.6069  -11.0021 H   0  0  0  0  0  0  0  0  0  0  0  0
  -10.9771   -0.4219  -10.0302 H   0  0  0  0  0  0  0  0  0  0  0  0
  -10.8454    1.2820  -11.8192 H   0  0  0  0  0  0  0  0  0  0  0  0
  -11.5530    0.4278  -14.7341 H   0  0  0  0  0  0  0  0  0  0  0  0
   -9.4876   -0.9712  -14.7432 H   0  0  0  0  0  0  0  0  0  0  0  0
   -7.3658   -0.0682  -13.7914 H   0  0  0  0  0  0  0  0  0  0  0  0
   -7.3082    2.2259  -12.8179 H   0  0  0  0  0  0  0  0  0  0  0  0
   -9.3680    3.6309  -12.8061 H   0  0  0  0  0  0  0  0  0  0  0  0
  1  2  1  0
  2  3  1  0
  3  4  2  0
  3  5  1  0
  5  6  1  0
  6  7  2  0
  7  8  1  0
  8  9  2  0
  9 10  1  0
  9 11  1  0
 11 12  1  0
 12 13  2  0
 12 14  1  0
 14 15  2  0
 15 16  1  0
 16 17  1  0
 17 18  1  0
 18 19  2  0
 19 20  1  0
 20 21  1  0
 21 22  1  0
 21 23  1  0
 23 24  2  0
 23 25  1  0
 25 26  1  0
 26 27  1  0
 27 28  1  0
 28 29  1  0
 29 30  1  0
 29 31  1  0
 31 32  1  0
 20 33  2  0
 33 34  1  0
 15 35  1  0
 35 36  2  0
 36 37  1  0
 37 38  2  0
 38 39  1  0
 39 40  2  0
 10  5  2  0
 34 17  2  0
 40 35  1  0
 14  8  1  0
 32 26  1  0
  1 41  1  0
  1 42  1  0
  1 43  1  0
  6 44  1  0
  7 45  1  0
 10 46  1  0
 11 47  1  0
 16 48  1  0
 18 49  1  0
 19 50  1  0
 22 51  1  0
 22 52  1  0
 22 53  1  0
 25 54  1  0
 25 55  1  0
 27 56  1  0
 27 57  1  0
 28 58  1  0
 28 59  1  0
 30 60  1  0
 30 61  1  0
 30 62  1  0
 31 63  1  0
 31 64  1  0
 32 65  1  0
 32 66  1  0
 33 67  1  0
 34 68  1  0
 36 69  1  0
 37 70  1  0
 38 71  1  0
 39 72  1  0
 40 73  1  0
M  END
>  <meeko>  (7) 
{"is_sidechain": false}

>  <vina_affinity_kcal_mol>  (7) 
-9.044

>  <pose_rank>  (7) 
7

$$$$

     RDKit          3D

 73 77  0  0  0  0  0  0  0  0999 V2000
  -10.3090    7.1190  -21.6130 C   0  0  0  0  0  0  0  0  0  0  0  0
   -9.2940    6.6970  -20.7000 O   0  0  0  0  0  0  0  0  0  0  0  0
   -9.3130    7.3520  -19.5130 C   0  0  0  0  0  0  0  0  0  0  0  0
   -9.1860    8.5550  -19.3570 O   0  0  0  0  0  0  0  0  0  0  0  0
   -9.5160    6.3990  -18.3880 C   0  0  0  0  0  0  0  0  0  0  0  0
   -8.5480    5.4360  -18.0310 C   0  0  0  0  0  0  0  0  0  0  0  0
   -8.7640    4.5500  -16.9640 C   0  0  0  0  0  0  0  0  0  0  0  0
   -9.9560    4.6250  -16.2630 C   0  0  0  0  0  0  0  0  0  0  0  0
  -10.8970    5.6010  -16.6210 C   0  0  0  0  0  0  0  0  0  0  0  0
  -10.7120    6.4870  -17.6650 C   0  0  0  0  0  0  0  0  0  0  0  0
  -11.9990    5.5580  -15.7760 N   0  0  0  0  0  0  0  0  0  0  0  0
  -11.8570    4.5770  -14.8150 C   0  0  0  0  0  0  0  0  0  0  0  0
  -12.6360    4.3160  -13.9150 O   0  0  0  0  0  0  0  0  0  0  0  0
  -10.5350    3.9030  -15.1110 C   0  0  0  0  0  0  0  0  0  0  0  0
  -10.1220    2.8470  -14.3650 C   0  0  0  0  0  0  0  0  0  0  0  0
  -10.8300    2.3870  -13.2570 N   0  0  0  0  0  0  0  0  0  0  0  0
  -10.9370    1.1600  -12.5830 C   0  0  0  0  0  0  0  0  0  0  0  0
  -10.2360    0.0000  -12.8930 C   0  0  0  0  0  0  0  0  0  0  0  0
  -10.3740   -1.1720  -12.1260 C   0  0  0  0  0  0  0  0  0  0  0  0
  -11.2080   -1.2300  -10.9990 C   0  0  0  0  0  0  0  0  0  0  0  0
  -11.3600   -2.4500  -10.2330 N   0  0  0  0  0  0  0  0  0  0  0  0
  -12.5910   -3.2170  -10.4300 C   0  0  0  0  0  0  0  0  0  0  0  0
  -10.3280   -2.9470   -9.4060 C   0  0  0  0  0  0  0  0  0  0  0  0
   -9.9610   -4.1240   -9.4090 O   0  0  0  0  0  0  0  0  0  0  0  0
   -9.6690   -1.9100   -8.4640 C   0  0  0  0  0  0  0  0  0  0  0  0
   -8.2060   -1.7690   -8.5900 N   0  0  0  0  0  0  0  0  0  0  0  0
   -7.7030   -1.9210   -9.9590 C   0  0  0  0  0  0  0  0  0  0  0  0
   -6.1960   -1.5570  -10.0790 C   0  0  0  0  0  0  0  0  0  0  0  0
   -5.3470   -1.8550   -8.9020 N   0  0  0  0  0  0  0  0  0  0  0  0
   -5.1050   -0.6470   -8.1130 C   0  0  0  0  0  0  0  0  0  0  0  0
   -5.9900   -2.8990   -8.0810 C   0  0  0  0  0  0  0  0  0  0  0  0
   -7.4450   -2.5940   -7.6360 C   0  0  0  0  0  0  0  0  0  0  0  0
  -11.9210   -0.0660  -10.6980 C   0  0  0  0  0  0  0  0  0  0  0  0
  -11.7810    1.1010  -11.4660 C   0  0  0  0  0  0  0  0  0  0  0  0
   -8.8310    2.2150  -14.6990 C   0  0  0  0  0  0  0  0  0  0  0  0
   -8.7500    1.2530  -15.7190 C   0  0  0  0  0  0  0  0  0  0  0  0
   -7.5240    0.6660  -16.0380 C   0  0  0  0  0  0  0  0  0  0  0  0
   -6.3730    1.0350  -15.3420 C   0  0  0  0  0  0  0  0  0  0  0  0
   -6.4440    1.9870  -14.3250 C   0  0  0  0  0  0  0  0  0  0  0  0
   -7.6680    2.5760  -14.0040 C   0  0  0  0  0  0  0  0  0  0  0  0
  -11.1813    7.4817  -21.0495 H   0  0  0  0  0  0  0  0  0  0  0  0
   -9.9187    7.9294  -22.2462 H   0  0  0  0  0  0  0  0  0  0  0  0
  -10.6083    6.2708  -22.2462 H   0  0  0  0  0  0  0  0  0  0  0  0
   -7.6077    5.3788  -18.5989 H   0  0  0  0  0  0  0  0  0  0  0  0
   -7.9993    3.8085  -16.6892 H   0  0  0  0  0  0  0  0  0  0  0  0
  -11.4773    7.2351  -17.9192 H   0  0  0  0  0  0  0  0  0  0  0  0
  -12.7980    6.1720  -15.8150 H   0  0  0  0  0  0  0  0  0  0  0  0
  -11.4440    3.1040  -12.8540 H   0  0  0  0  0  0  0  0  0  0  0  0
   -9.5572   -0.0018  -13.7586 H   0  0  0  0  0  0  0  0  0  0  0  0
   -9.8107   -2.0702  -12.4191 H   0  0  0  0  0  0  0  0  0  0  0  0
  -13.0178   -3.4829   -9.4517 H   0  0  0  0  0  0  0  0  0  0  0  0
  -13.3151   -2.6099  -10.9932 H   0  0  0  0  0  0  0  0  0  0  0  0
  -12.3652   -4.1345  -10.9932 H   0  0  0  0  0  0  0  0  0  0  0  0
  -10.1220   -0.9293   -8.6715 H   0  0  0  0  0  0  0  0  0  0  0  0
   -9.8476   -2.2773   -7.4426 H   0  0  0  0  0  0  0  0  0  0  0  0
   -7.8402   -2.9666  -10.2720 H   0  0  0  0  0  0  0  0  0  0  0  0
   -8.2677   -1.2309  -10.6031 H   0  0  0  0  0  0  0  0  0  0  0  0
   -5.7857   -2.1116  -10.9358 H   0  0  0  0  0  0  0  0  0  0  0  0
   -6.1691   -0.4626  -10.1870 H   0  0  0  0  0  0  0  0  0  0  0  0
   -5.1542   -0.8927   -7.0419 H   0  0  0  0  0  0  0  0  0  0  0  0
   -4.1088   -0.2465   -8.3519 H   0  0  0  0  0  0  0  0  0  0  0  0
   -5.8701    0.1064   -8.3519 H   0  0  0  0  0  0  0  0  0  0  0  0
   -6.0022   -3.8308   -8.6655 H   0  0  0  0  0  0  0  0  0  0  0  0
   -5.3978   -2.9648   -7.1563 H   0  0  0  0  0  0  0  0  0  0  0  0
   -7.9742   -3.5497   -7.5071 H   0  0  0  0  0  0  0  0  0  0  0  0
   -7.3763   -2.0167   -6.7022 H   0  0  0  0  0  0  0  0  0  0  0  0
  -12.6081   -0.0642   -9.8390 H   0  0  0  0  0  0  0  0  0  0  0  0
  -12.3519    1.9973  -11.1819 H   0  0  0  0  0  0  0  0  0  0  0  0
   -9.6566    0.9607  -16.2691 H   0  0  0  0  0  0  0  0  0  0  0  0
   -7.4659   -0.0870  -16.8377 H   0  0  0  0  0  0  0  0  0  0  0  0
   -5.4069    0.5742  -15.5957 H   0  0  0  0  0  0  0  0  0  0  0  0
   -5.5351    2.2737  -13.7758 H   0  0  0  0  0  0  0  0  0  0  0  0
   -7.7205    3.3270  -13.2020 H   0  0  0  0  0  0  0  0  0  0  0  0
  1  2  1  0
  2  3  1  0
  3  4  2  0
  3  5  1  0
  5  6  1  0
  6  7  2  0
  7  8  1  0
  8  9  2  0
  9 10  1  0
  9 11  1  0
 11 12  1  0
 12 13  2  0
 12 14  1  0
 14 15  2  0
 15 16  1  0
 16 17  1  0
 17 18  1  0
 18 19  2  0
 19 20  1  0
 20 21  1  0
 21 22  1  0
 21 23  1  0
 23 24  2  0
 23 25  1  0
 25 26  1  0
 26 27  1  0
 27 28  1  0
 28 29  1  0
 29 30  1  0
 29 31  1  0
 31 32  1  0
 20 33  2  0
 33 34  1  0
 15 35  1  0
 35 36  2  0
 36 37  1  0
 37 38  2  0
 38 39  1  0
 39 40  2  0
 10  5  2  0
 34 17  2  0
 40 35  1  0
 14  8  1  0
 32 26  1  0
  1 41  1  0
  1 42  1  0
  1 43  1  0
  6 44  1  0
  7 45  1  0
 10 46  1  0
 11 47  1  0
 16 48  1  0
 18 49  1  0
 19 50  1  0
 22 51  1  0
 22 52  1  0
 22 53  1  0
 25 54  1  0
 25 55  1  0
 27 56  1  0
 27 57  1  0
 28 58  1  0
 28 59  1  0
 30 60  1  0
 30 61  1  0
 30 62  1  0
 31 63  1  0
 31 64  1  0
 32 65  1  0
 32 66  1  0
 33 67  1  0
 34 68  1  0
 36 69  1  0
 37 70  1  0
 38 71  1  0
 39 72  1  0
 40 73  1  0
M  END
>  <meeko>  (8) 
{"is_sidechain": false}

>  <vina_affinity_kcal_mol>  (8) 
-9.01

>  <pose_rank>  (8) 
8

$$$$

     RDKit          3D

 73 77  0  0  0  0  0  0  0  0999 V2000
   -9.8990    8.2480  -20.6420 C   0  0  0  0  0  0  0  0  0  0  0  0
   -9.5850    7.9360  -19.2840 O   0  0  0  0  0  0  0  0  0  0  0  0
   -8.9690    6.7380  -19.1230 C   0  0  0  0  0  0  0  0  0  0  0  0
   -8.0350    6.3180  -19.7870 O   0  0  0  0  0  0  0  0  0  0  0  0
   -9.5860    5.9730  -18.0050 C   0  0  0  0  0  0  0  0  0  0  0  0
   -8.8960    4.9530  -17.3170 C   0  0  0  0  0  0  0  0  0  0  0  0
   -9.5020    4.2480  -16.2650 C   0  0  0  0  0  0  0  0  0  0  0  0
  -10.8040    4.5610  -15.9130 C   0  0  0  0  0  0  0  0  0  0  0  0
  -11.4660    5.5900  -16.5960 C   0  0  0  0  0  0  0  0  0  0  0  0
  -10.8960    6.3020  -17.6340 C   0  0  0  0  0  0  0  0  0  0  0  0
  -12.7370    5.7940  -16.0710 N   0  0  0  0  0  0  0  0  0  0  0  0
  -12.9880    4.9380  -15.0180 C   0  0  0  0  0  0  0  0  0  0  0  0
  -13.9960    4.8940  -14.3340 O   0  0  0  0  0  0  0  0  0  0  0  0
  -11.7530    4.0730  -14.8910 C   0  0  0  0  0  0  0  0  0  0  0  0
  -11.7040    3.0810  -13.9660 C   0  0  0  0  0  0  0  0  0  0  0  0
  -12.7250    2.8600  -13.0450 N   0  0  0  0  0  0  0  0  0  0  0  0
  -12.9140    1.9930  -11.9560 C   0  0  0  0  0  0  0  0  0  0  0  0
  -14.1040    1.8130  -11.2600 C   0  0  0  0  0  0  0  0  0  0  0  0
  -14.2110    0.8810  -10.2100 C   0  0  0  0  0  0  0  0  0  0  0  0
  -13.1330    0.0700   -9.8240 C   0  0  0  0  0  0  0  0  0  0  0  0
  -13.2490   -0.8680   -8.7260 N   0  0  0  0  0  0  0  0  0  0  0  0
  -12.4940   -0.5710   -7.5080 C   0  0  0  0  0  0  0  0  0  0  0  0
  -14.1310   -1.9710   -8.7750 C   0  0  0  0  0  0  0  0  0  0  0  0
  -14.4160   -2.5690   -9.8150 O   0  0  0  0  0  0  0  0  0  0  0  0
  -14.7460   -2.3950   -7.4190 C   0  0  0  0  0  0  0  0  0  0  0  0
  -16.1230   -1.9330   -7.1680 N   0  0  0  0  0  0  0  0  0  0  0  0
  -16.2230   -0.5210   -6.7830 C   0  0  0  0  0  0  0  0  0  0  0  0
  -17.6950   -0.0240   -6.7360 C   0  0  0  0  0  0  0  0  0  0  0  0
  -18.7160   -1.0150   -6.3230 N   0  0  0  0  0  0  0  0  0  0  0  0
  -19.4190   -1.5560   -7.4870 C   0  0  0  0  0  0  0  0  0  0  0  0
  -18.0730   -2.0940   -5.5480 C   0  0  0  0  0  0  0  0  0  0  0  0
  -16.8840   -2.8010   -6.2530 C   0  0  0  0  0  0  0  0  0  0  0  0
  -11.9350    0.2620  -10.5190 C   0  0  0  0  0  0  0  0  0  0  0  0
  -11.8330    1.1940  -11.5640 C   0  0  0  0  0  0  0  0  0  0  0  0
  -10.4830    2.2550  -13.8870 C   0  0  0  0  0  0  0  0  0  0  0  0
  -10.4620    0.9590  -14.4260 C   0  0  0  0  0  0  0  0  0  0  0  0
   -9.3010    0.1860  -14.3580 C   0  0  0  0  0  0  0  0  0  0  0  0
   -8.1550    0.7020  -13.7540 C   0  0  0  0  0  0  0  0  0  0  0  0
   -8.1670    1.9890  -13.2130 C   0  0  0  0  0  0  0  0  0  0  0  0
   -9.3260    2.7630  -13.2800 C   0  0  0  0  0  0  0  0  0  0  0  0
  -10.6791    9.0231  -20.6692 H   0  0  0  0  0  0  0  0  0  0  0  0
   -8.9968    8.6177  -21.1513 H   0  0  0  0  0  0  0  0  0  0  0  0
  -10.2629    7.3435  -21.1513 H   0  0  0  0  0  0  0  0  0  0  0  0
   -7.8650    4.7056  -17.6099 H   0  0  0  0  0  0  0  0  0  0  0  0
   -8.9518    3.4603  -15.7295 H   0  0  0  0  0  0  0  0  0  0  0  0
  -11.4512    7.0988  -18.1506 H   0  0  0  0  0  0  0  0  0  0  0  0
  -13.3980    6.4930  -16.3770 H   0  0  0  0  0  0  0  0  0  0  0  0
  -13.5490    3.4470  -13.2200 H   0  0  0  0  0  0  0  0  0  0  0  0
  -14.9834    2.4133  -11.5363 H   0  0  0  0  0  0  0  0  0  0  0  0
  -15.1682    0.7858   -9.6764 H   0  0  0  0  0  0  0  0  0  0  0  0
  -13.1081   -0.8126   -6.6279 H   0  0  0  0  0  0  0  0  0  0  0  0
  -11.5744   -1.1744   -7.4903 H   0  0  0  0  0  0  0  0  0  0  0  0
  -12.2320    0.4972   -7.4903 H   0  0  0  0  0  0  0  0  0  0  0  0
  -14.7456   -3.4942   -7.3770 H   0  0  0  0  0  0  0  0  0  0  0  0
  -14.1248   -1.9182   -6.6465 H   0  0  0  0  0  0  0  0  0  0  0  0
  -15.7749   -0.3937   -5.7865 H   0  0  0  0  0  0  0  0  0  0  0  0
  -15.6920    0.0726   -7.5417 H   0  0  0  0  0  0  0  0  0  0  0  0
  -17.7410    0.8173   -6.0288 H   0  0  0  0  0  0  0  0  0  0  0  0
  -17.9468    0.2368   -7.7746 H   0  0  0  0  0  0  0  0  0  0  0  0
  -20.2488   -2.1946   -7.1500 H   0  0  0  0  0  0  0  0  0  0  0  0
  -19.8160   -0.7282   -8.0929 H   0  0  0  0  0  0  0  0  0  0  0  0
  -18.7205   -2.1518   -8.0929 H   0  0  0  0  0  0  0  0  0  0  0  0
  -17.7015   -1.6615   -4.6073 H   0  0  0  0  0  0  0  0  0  0  0  0
  -18.8436   -2.8658   -5.4049 H   0  0  0  0  0  0  0  0  0  0  0  0
  -16.1965   -3.1741   -5.4795 H   0  0  0  0  0  0  0  0  0  0  0  0
  -17.3135   -3.6073   -6.8657 H   0  0  0  0  0  0  0  0  0  0  0  0
  -11.0516   -0.3312  -10.2404 H   0  0  0  0  0  0  0  0  0  0  0  0
  -10.8735    1.2999  -12.0915 H   0  0  0  0  0  0  0  0  0  0  0  0
  -11.3644    0.5504  -14.9042 H   0  0  0  0  0  0  0  0  0  0  0  0
   -9.2905   -0.8295  -14.7807 H   0  0  0  0  0  0  0  0  0  0  0  0
   -7.2398    0.0939  -13.7037 H   0  0  0  0  0  0  0  0  0  0  0  0
   -7.2628    2.3928  -12.7340 H   0  0  0  0  0  0  0  0  0  0  0  0
   -9.3319    3.7772  -12.8542 H   0  0  0  0  0  0  0  0  0  0  0  0
  1  2  1  0
  2  3  1  0
  3  4  2  0
  3  5  1  0
  5  6  1  0
  6  7  2  0
  7  8  1  0
  8  9  2  0
  9 10  1  0
  9 11  1  0
 11 12  1  0
 12 13  2  0
 12 14  1  0
 14 15  2  0
 15 16  1  0
 16 17  1  0
 17 18  1  0
 18 19  2  0
 19 20  1  0
 20 21  1  0
 21 22  1  0
 21 23  1  0
 23 24  2  0
 23 25  1  0
 25 26  1  0
 26 27  1  0
 27 28  1  0
 28 29  1  0
 29 30  1  0
 29 31  1  0
 31 32  1  0
 20 33  2  0
 33 34  1  0
 15 35  1  0
 35 36  2  0
 36 37  1  0
 37 38  2  0
 38 39  1  0
 39 40  2  0
 10  5  2  0
 34 17  2  0
 40 35  1  0
 14  8  1  0
 32 26  1  0
  1 41  1  0
  1 42  1  0
  1 43  1  0
  6 44  1  0
  7 45  1  0
 10 46  1  0
 11 47  1  0
 16 48  1  0
 18 49  1  0
 19 50  1  0
 22 51  1  0
 22 52  1  0
 22 53  1  0
 25 54  1  0
 25 55  1  0
 27 56  1  0
 27 57  1  0
 28 58  1  0
 28 59  1  0
 30 60  1  0
 30 61  1  0
 30 62  1  0
 31 63  1  0
 31 64  1  0
 32 65  1  0
 32 66  1  0
 33 67  1  0
 34 68  1  0
 36 69  1  0
 37 70  1  0
 38 71  1  0
 39 72  1  0
 40 73  1  0
M  END
>  <meeko>  (9) 
{"is_sidechain": false}

>  <vina_affinity_kcal_mol>  (9) 
-8.978

>  <pose_rank>  (9) 
9

$$$$

     RDKit          3D

 73 77  0  0  0  0  0  0  0  0999 V2000
  -10.0500    7.1740  -21.7570 C   0  0  0  0  0  0  0  0  0  0  0  0
  -10.2760    6.3460  -20.6160 O   0  0  0  0  0  0  0  0  0  0  0  0
   -9.9010    6.9120  -19.4420 C   0  0  0  0  0  0  0  0  0  0  0  0
   -9.9970    8.0930  -19.1530 O   0  0  0  0  0  0  0  0  0  0  0  0
   -9.3410    5.8880  -18.5170 C   0  0  0  0  0  0  0  0  0  0  0  0
  -10.1430    5.1900  -17.5900 C   0  0  0  0  0  0  0  0  0  0  0  0
   -9.5880    4.2290  -16.7300 C   0  0  0  0  0  0  0  0  0  0  0  0
   -8.2280    3.9780  -16.7950 C   0  0  0  0  0  0  0  0  0  0  0  0
   -7.4520    4.6690  -17.7360 C   0  0  0  0  0  0  0  0  0  0  0  0
   -7.9690    5.6190  -18.5960 C   0  0  0  0  0  0  0  0  0  0  0  0
   -6.1280    4.2480  -17.6900 N   0  0  0  0  0  0  0  0  0  0  0  0
   -5.9480    3.2620  -16.7410 C   0  0  0  0  0  0  0  0  0  0  0  0
   -4.9130    2.6720  -16.4860 O   0  0  0  0  0  0  0  0  0  0  0  0
   -7.3020    3.0660  -16.0920 C   0  0  0  0  0  0  0  0  0  0  0  0
   -7.4500    2.1870  -15.0690 C   0  0  0  0  0  0  0  0  0  0  0  0
   -6.4140    1.3700  -14.6240 N   0  0  0  0  0  0  0  0  0  0  0  0
   -6.2450   -0.0120  -14.4380 C   0  0  0  0  0  0  0  0  0  0  0  0
   -5.8190   -0.9150  -15.4050 C   0  0  0  0  0  0  0  0  0  0  0  0
   -5.6310   -2.2790  -15.1100 C   0  0  0  0  0  0  0  0  0  0  0  0
   -5.8410   -2.7970  -13.8230 C   0  0  0  0  0  0  0  0  0  0  0  0
   -5.6690   -4.2060  -13.5390 N   0  0  0  0  0  0  0  0  0  0  0  0
   -5.4880   -4.5910  -12.1380 C   0  0  0  0  0  0  0  0  0  0  0  0
   -5.7730   -5.1900  -14.5470 C   0  0  0  0  0  0  0  0  0  0  0  0
   -6.6380   -5.1760  -15.4250 O   0  0  0  0  0  0  0  0  0  0  0  0
   -4.7210   -6.3250  -14.4850 C   0  0  0  0  0  0  0  0  0  0  0  0
   -4.0570   -6.6520  -15.7610 N   0  0  0  0  0  0  0  0  0  0  0  0
   -3.5100   -5.4910  -16.4700 C   0  0  0  0  0  0  0  0  0  0  0  0
   -2.6410   -5.9010  -17.6920 C   0  0  0  0  0  0  0  0  0  0  0  0
   -3.0480   -7.1290  -18.4130 N   0  0  0  0  0  0  0  0  0  0  0  0
   -2.2140   -8.2650  -18.0200 C   0  0  0  0  0  0  0  0  0  0  0  0
   -4.4730   -7.4070  -18.1500 C   0  0  0  0  0  0  0  0  0  0  0  0
   -4.8670   -7.5020  -16.6510 C   0  0  0  0  0  0  0  0  0  0  0  0
   -6.2810   -1.8880  -12.8560 C   0  0  0  0  0  0  0  0  0  0  0  0
   -6.4690   -0.5290  -13.1550 C   0  0  0  0  0  0  0  0  0  0  0  0
   -8.7860    2.0390  -14.4600 C   0  0  0  0  0  0  0  0  0  0  0  0
   -9.2560    2.9840  -13.5340 C   0  0  0  0  0  0  0  0  0  0  0  0
  -10.5260    2.8450  -12.9690 C   0  0  0  0  0  0  0  0  0  0  0  0
  -11.3330    1.7650  -13.3250 C   0  0  0  0  0  0  0  0  0  0  0  0
  -10.8730    0.8190  -14.2420 C   0  0  0  0  0  0  0  0  0  0  0  0
   -9.6040    0.9550  -14.8090 C   0  0  0  0  0  0  0  0  0  0  0  0
   -9.7737    8.1862  -21.4266 H   0  0  0  0  0  0  0  0  0  0  0  0
   -9.2346    6.7504  -22.3617 H   0  0  0  0  0  0  0  0  0  0  0  0
  -10.9675    7.2234  -22.3617 H   0  0  0  0  0  0  0  0  0  0  0  0
  -11.2212    5.4021  -17.5401 H   0  0  0  0  0  0  0  0  0  0  0  0
  -10.2234    3.6843  -16.0161 H   0  0  0  0  0  0  0  0  0  0  0  0
   -7.3259    6.1451  -19.3168 H   0  0  0  0  0  0  0  0  0  0  0  0
   -5.3820    4.5780  -18.2830 H   0  0  0  0  0  0  0  0  0  0  0  0
   -5.5870    1.9030  -14.3300 H   0  0  0  0  0  0  0  0  0  0  0  0
   -5.6239   -0.5552  -16.4260 H   0  0  0  0  0  0  0  0  0  0  0  0
   -5.3098   -2.9590  -15.9128 H   0  0  0  0  0  0  0  0  0  0  0  0
   -5.8649   -3.7894  -11.4858 H   0  0  0  0  0  0  0  0  0  0  0  0
   -6.0444   -5.5186  -11.9378 H   0  0  0  0  0  0  0  0  0  0  0  0
   -4.4188   -4.7543  -11.9378 H   0  0  0  0  0  0  0  0  0  0  0  0
   -3.9436   -6.0264  -13.7663 H   0  0  0  0  0  0  0  0  0  0  0  0
   -5.2736   -7.2305  -14.1938 H   0  0  0  0  0  0  0  0  0  0  0  0
   -4.3442   -4.8668  -16.8228 H   0  0  0  0  0  0  0  0  0  0  0  0
   -2.8655   -4.9414  -15.7682 H   0  0  0  0  0  0  0  0  0  0  0  0
   -2.6628   -5.0690  -18.4112 H   0  0  0  0  0  0  0  0  0  0  0  0
   -1.6461   -6.1236  -17.2788 H   0  0  0  0  0  0  0  0  0  0  0  0
   -2.1698   -8.3251  -16.9225 H   0  0  0  0  0  0  0  0  0  0  0  0
   -2.6465   -9.1935  -18.4210 H   0  0  0  0  0  0  0  0  0  0  0  0
   -1.1986   -8.1305  -18.4210 H   0  0  0  0  0  0  0  0  0  0  0  0
   -5.0660   -6.6007  -18.6064 H   0  0  0  0  0  0  0  0  0  0  0  0
   -4.6726   -8.3998  -18.5796 H   0  0  0  0  0  0  0  0  0  0  0  0
   -5.9204   -7.2016  -16.5510 H   0  0  0  0  0  0  0  0  0  0  0  0
   -4.6909   -8.5430  -16.3421 H   0  0  0  0  0  0  0  0  0  0  0  0
   -6.4849   -2.2462  -11.8361 H   0  0  0  0  0  0  0  0  0  0  0  0
   -6.8025    0.1510  -12.3572 H   0  0  0  0  0  0  0  0  0  0  0  0
   -8.6216    3.8373  -13.2523 H   0  0  0  0  0  0  0  0  0  0  0  0
  -10.8894    3.5875  -12.2433 H   0  0  0  0  0  0  0  0  0  0  0  0
  -12.3343    1.6585  -12.8821 H   0  0  0  0  0  0  0  0  0  0  0  0
  -11.5101   -0.0341  -14.5183 H   0  0  0  0  0  0  0  0  0  0  0  0
   -9.2446    0.2085  -15.5325 H   0  0  0  0  0  0  0  0  0  0  0  0
  1  2  1  0
  2  3  1  0
  3  4  2  0
  3  5  1  0
  5  6  1  0
  6  7  2  0
  7  8  1  0
  8  9  2  0
  9 10  1  0
  9 11  1  0
 11 12  1  0
 12 13  2  0
 12 14  1  0
 14 15  2  0
 15 16  1  0
 16 17  1  0
 17 18  1  0
 18 19  2  0
 19 20  1  0
 20 21  1  0
 21 22  1  0
 21 23  1  0
 23 24  2  0
 23 25  1  0
 25 26  1  0
 26 27  1  0
 27 28  1  0
 28 29  1  0
 29 30  1  0
 29 31  1  0
 31 32  1  0
 20 33  2  0
 33 34  1  0
 15 35  1  0
 35 36  2  0
 36 37  1  0
 37 38  2  0
 38 39  1  0
 39 40  2  0
 10  5  2  0
 34 17  2  0
 40 35  1  0
 14  8  1  0
 32 26  1  0
  1 41  1  0
  1 42  1  0
  1 43  1  0
  6 44  1  0
  7 45  1  0
 10 46  1  0
 11 47  1  0
 16 48  1  0
 18 49  1  0
 19 50  1  0
 22 51  1  0
 22 52  1  0
 22 53  1  0
 25 54  1  0
 25 55  1  0
 27 56  1  0
 27 57  1  0
 28 58  1  0
 28 59  1  0
 30 60  1  0
 30 61  1  0
 30 62  1  0
 31 63  1  0
 31 64  1  0
 32 65  1  0
 32 66  1  0
 33 67  1  0
 34 68  1  0
 36 69  1  0
 37 70  1  0
 38 71  1  0
 39 72  1  0
 40 73  1  0
M  END
>  <meeko>  (10) 
{"is_sidechain": false}

>  <vina_affinity_kcal_mol>  (10) 
-8.957

>  <pose_rank>  (10) 
10

$$$$
