
     RDKit          3D

 54 57  0  0  0  0  0  0  0  0999 V2000
  -39.2260  165.1700   -3.1430 C   0  0  0  0  0  0  0  0  0  0  0  0
  -38.4780  164.3140   -2.1310 C   0  0  0  0  0  0  0  0  0  0  0  0
  -38.7770  162.8910   -2.2820 N   0  0  0  0  0  0  0  0  0  0  0  0
  -39.0030  162.1620   -1.1110 C   0  0  0  0  0  0  0  0  0  0  0  0
  -38.9430  162.6560    0.0150 O   0  0  0  0  0  0  0  0  0  0  0  0
  -39.3320  160.7040   -1.2580 C   0  0  0  0  0  0  0  0  0  0  0  0
  -39.6450  159.8930   -0.0670 C   0  0  0  0  0  0  0  0  0  0  0  0
  -38.6170  159.1070    0.4920 C   0  0  0  0  0  0  0  0  0  0  0  0
  -38.8520  158.3270    1.6260 C   0  0  0  0  0  0  0  0  0  0  0  0
  -37.8780  157.5170    2.2490 N   0  0  0  0  0  0  0  0  0  0  0  0
  -37.3200  157.6920    3.5060 C   0  0  0  0  0  0  0  0  0  0  0  0
  -37.5310  158.6580    4.2260 O   0  0  0  0  0  0  0  0  0  0  0  0
  -36.4960  156.6210    3.8150 N   0  0  0  0  0  0  0  0  0  0  0  0
  -35.6750  156.4660    4.9510 C   0  0  0  0  0  0  0  0  0  0  0  0
  -36.1220  155.5910    5.9500 C   0  0  0  0  0  0  0  0  0  0  0  0
  -35.3620  155.3750    7.1020 C   0  0  0  0  0  0  0  0  0  0  0  0
  -34.1450  156.0280    7.2660 C   0  0  0  0  0  0  0  0  0  0  0  0
  -33.6880  156.8950    6.2760 C   0  0  0  0  0  0  0  0  0  0  0  0
  -34.4480  157.1110    5.1210 C   0  0  0  0  0  0  0  0  0  0  0  0
  -40.1240  158.3570    2.2080 C   0  0  0  0  0  0  0  0  0  0  0  0
  -40.3630  157.6230    3.3060 F   0  0  0  0  0  0  0  0  0  0  0  0
  -41.1560  159.1190    1.6710 C   0  0  0  0  0  0  0  0  0  0  0  0
  -40.9180  159.8840    0.5300 C   0  0  0  0  0  0  0  0  0  0  0  0
  -42.3800  160.8710   -0.1800 Br  0  0  0  0  0  0  0  0  0  0  0  0
  -39.3470  160.1240   -2.4670 C   0  0  0  0  0  0  0  0  0  0  0  0
  -39.0450  160.9020   -3.6600 C   0  0  0  0  0  0  0  0  0  0  0  0
  -39.0350  160.3170   -4.9170 C   0  0  0  0  0  0  0  0  0  0  0  0
  -38.7620  160.9800   -6.0630 N   0  0  0  0  0  0  0  0  0  0  0  0
  -38.4710  162.2900   -5.9760 C   0  0  0  0  0  0  0  0  0  0  0  0
  -38.1990  163.0390   -7.1340 N   0  0  0  0  0  0  0  0  0  0  0  0
  -38.2320  164.4800   -6.9350 C   0  0  0  0  0  0  0  0  0  0  0  0
  -38.4730  162.9590   -4.7510 C   0  0  0  0  0  0  0  0  0  0  0  0
  -38.7630  162.2650   -3.5700 C   0  0  0  0  0  0  0  0  0  0  0  0
  -39.8600  165.8955   -2.6122 H   0  0  0  0  0  0  0  0  0  0  0  0
  -38.5030  165.7076   -3.7741 H   0  0  0  0  0  0  0  0  0  0  0  0
  -39.8556  164.5256   -3.7741 H   0  0  0  0  0  0  0  0  0  0  0  0
  -37.3973  164.4654   -2.2692 H   0  0  0  0  0  0  0  0  0  0  0  0
  -38.8003  164.6216   -1.1253 H   0  0  0  0  0  0  0  0  0  0  0  0
  -37.6188  159.1081    0.0298 H   0  0  0  0  0  0  0  0  0  0  0  0
  -37.4130  156.8600    1.6350 H   0  0  0  0  0  0  0  0  0  0  0  0
  -36.5990  155.8050    3.2320 H   0  0  0  0  0  0  0  0  0  0  0  0
  -37.0819  155.0684    5.8257 H   0  0  0  0  0  0  0  0  0  0  0  0
  -35.7263  154.6880    7.8800 H   0  0  0  0  0  0  0  0  0  0  0  0
  -33.5460  155.8606    8.1733 H   0  0  0  0  0  0  0  0  0  0  0  0
  -32.7254  157.4121    6.4027 H   0  0  0  0  0  0  0  0  0  0  0  0
  -34.0766  157.7931    4.3420 H   0  0  0  0  0  0  0  0  0  0  0  0
  -42.1502  159.1182    2.1418 H   0  0  0  0  0  0  0  0  0  0  0  0
  -39.5888  159.0547   -2.5579 H   0  0  0  0  0  0  0  0  0  0  0  0
  -39.2642  159.2434   -4.9863 H   0  0  0  0  0  0  0  0  0  0  0  0
  -38.8310  162.7490   -7.8740 H   0  0  0  0  0  0  0  0  0  0  0  0
  -38.2371  164.7013   -5.8575 H   0  0  0  0  0  0  0  0  0  0  0  0
  -37.3440  164.9346   -7.3985 H   0  0  0  0  0  0  0  0  0  0  0  0
  -39.1398  164.8935   -7.3985 H   0  0  0  0  0  0  0  0  0  0  0  0
  -38.2461  164.0347   -4.7133 H   0  0  0  0  0  0  0  0  0  0  0  0
  1  2  1  0
  2  3  1  0
  3  4  1  0
  4  5  2  0
  4  6  1  0
  6  7  1  0
  7  8  1  0
  8  9  2  0
  9 10  1  0
 10 11  1  0
 11 12  2  0
 11 13  1  0
 13 14  1  0
 14 15  2  0
 15 16  1  0
 16 17  2  0
 17 18  1  0
 18 19  2  0
  9 20  1  0
 20 21  1  0
 20 22  2  0
 22 23  1  0
 23 24  1  0
  6 25  2  0
 25 26  1  0
 26 27  2  0
 27 28  1  0
 28 29  2  0
 29 30  1  0
 30 31  1  0
 29 32  1  0
 32 33  2  0
 33  3  1  0
 23  7  2  0
 33 26  1  0
 19 14  1  0
  1 34  1  0
  1 35  1  0
  1 36  1  0
  2 37  1  0
  2 38  1  0
  8 39  1  0
 10 40  1  0
 13 41  1  0
 15 42  1  0
 16 43  1  0
 17 44  1  0
 18 45  1  0
 19 46  1  0
 22 47  1  0
 25 48  1  0
 27 49  1  0
 30 50  1  0
 31 51  1  0
 31 52  1  0
 31 53  1  0
 32 54  1  0
M  END
>  <meeko>  (1) 
{"is_sidechain": false}

>  <vina_affinity_kcal_mol>  (1) 
-10.747

>  <pose_rank>  (1) 
1

$$$$

     RDKit          3D

 54 57  0  0  0  0  0  0  0  0999 V2000
  -39.7260  160.3220   -5.7710 C   0  0  0  0  0  0  0  0  0  0  0  0
  -38.4790  160.3670   -4.9010 C   0  0  0  0  0  0  0  0  0  0  0  0
  -38.7310  160.9950   -3.6050 N   0  0  0  0  0  0  0  0  0  0  0  0
  -39.0880  160.1530   -2.5480 C   0  0  0  0  0  0  0  0  0  0  0  0
  -39.2140  158.9340   -2.6690 O   0  0  0  0  0  0  0  0  0  0  0  0
  -39.3270  160.7880   -1.2090 C   0  0  0  0  0  0  0  0  0  0  0  0
  -39.6430  159.9480   -0.0380 C   0  0  0  0  0  0  0  0  0  0  0  0
  -38.6130  159.1630    0.5160 C   0  0  0  0  0  0  0  0  0  0  0  0
  -38.8510  158.3570    1.6310 C   0  0  0  0  0  0  0  0  0  0  0  0
  -37.8740  157.5470    2.2490 N   0  0  0  0  0  0  0  0  0  0  0  0
  -37.3220  157.7110    3.5100 C   0  0  0  0  0  0  0  0  0  0  0  0
  -37.5420  158.6680    4.2400 O   0  0  0  0  0  0  0  0  0  0  0  0
  -36.4920  156.6420    3.8110 N   0  0  0  0  0  0  0  0  0  0  0  0
  -35.6750  156.4800    4.9480 C   0  0  0  0  0  0  0  0  0  0  0  0
  -36.1260  155.6000    5.9410 C   0  0  0  0  0  0  0  0  0  0  0  0
  -35.3700  155.3770    7.0940 C   0  0  0  0  0  0  0  0  0  0  0  0
  -34.1520  156.0270    7.2650 C   0  0  0  0  0  0  0  0  0  0  0  0
  -33.6910  156.8980    6.2810 C   0  0  0  0  0  0  0  0  0  0  0  0
  -34.4480  157.1220    5.1250 C   0  0  0  0  0  0  0  0  0  0  0  0
  -40.1300  158.3600    2.1980 C   0  0  0  0  0  0  0  0  0  0  0  0
  -40.3720  157.6000    3.2780 F   0  0  0  0  0  0  0  0  0  0  0  0
  -41.1650  159.1200    1.6650 C   0  0  0  0  0  0  0  0  0  0  0  0
  -40.9230  159.9110    0.5420 C   0  0  0  0  0  0  0  0  0  0  0  0
  -42.3890  160.8950   -0.1640 Br  0  0  0  0  0  0  0  0  0  0  0  0
  -39.2540  162.1190   -1.0590 C   0  0  0  0  0  0  0  0  0  0  0  0
  -38.9400  162.9700   -2.1980 C   0  0  0  0  0  0  0  0  0  0  0  0
  -38.8800  164.3500   -2.0690 C   0  0  0  0  0  0  0  0  0  0  0  0
  -38.5960  165.1980   -3.0820 N   0  0  0  0  0  0  0  0  0  0  0  0
  -38.3670  164.6680   -4.2970 C   0  0  0  0  0  0  0  0  0  0  0  0
  -38.0460  165.4960   -5.3870 N   0  0  0  0  0  0  0  0  0  0  0  0
  -38.2230  164.8670   -6.6870 C   0  0  0  0  0  0  0  0  0  0  0  0
  -38.3940  163.2890   -4.5090 C   0  0  0  0  0  0  0  0  0  0  0  0
  -38.6830  162.4180   -3.4520 C   0  0  0  0  0  0  0  0  0  0  0  0
  -40.6193  160.2898   -5.1300 H   0  0  0  0  0  0  0  0  0  0  0  0
  -39.7626  161.2194   -6.4061 H   0  0  0  0  0  0  0  0  0  0  0  0
  -39.6978  159.4243   -6.4061 H   0  0  0  0  0  0  0  0  0  0  0  0
  -38.1268  159.3385   -4.7335 H   0  0  0  0  0  0  0  0  0  0  0  0
  -37.7229  160.9691   -5.4262 H   0  0  0  0  0  0  0  0  0  0  0  0
  -37.6099  159.1852    0.0652 H   0  0  0  0  0  0  0  0  0  0  0  0
  -37.4030  156.9000    1.6300 H   0  0  0  0  0  0  0  0  0  0  0  0
  -36.5880  155.8320    3.2180 H   0  0  0  0  0  0  0  0  0  0  0  0
  -37.0861  155.0791    5.8109 H   0  0  0  0  0  0  0  0  0  0  0  0
  -35.7380  154.6868    7.8675 H   0  0  0  0  0  0  0  0  0  0  0  0
  -33.5559  155.8538    8.1731 H   0  0  0  0  0  0  0  0  0  0  0  0
  -32.7276  157.4123    6.4128 H   0  0  0  0  0  0  0  0  0  0  0  0
  -34.0737  157.8083    4.3511 H   0  0  0  0  0  0  0  0  0  0  0  0
  -42.1643  159.0977    2.1242 H   0  0  0  0  0  0  0  0  0  0  0  0
  -39.4321  162.5695   -0.0714 H   0  0  0  0  0  0  0  0  0  0  0  0
  -39.0766  164.7823   -1.0768 H   0  0  0  0  0  0  0  0  0  0  0  0
  -37.1020  165.8500   -5.2690 H   0  0  0  0  0  0  0  0  0  0  0  0
  -38.5186  163.8165   -6.5489 H   0  0  0  0  0  0  0  0  0  0  0  0
  -39.0067  165.3978   -7.2475 H   0  0  0  0  0  0  0  0  0  0  0  0
  -37.2775  164.9112   -7.2475 H   0  0  0  0  0  0  0  0  0  0  0  0
  -38.1873  162.8847   -5.5109 H   0  0  0  0  0  0  0  0  0  0  0  0
  1  2  1  0
  2  3  1  0
  3  4  1  0
  4  5  2  0
  4  6  1  0
  6  7  1  0
  7  8  1  0
  8  9  2  0
  9 10  1  0
 10 11  1  0
 11 12  2  0
 11 13  1  0
 13 14  1  0
 14 15  2  0
 15 16  1  0
 16 17  2  0
 17 18  1  0
 18 19  2  0
  9 20  1  0
 20 21  1  0
 20 22  2  0
 22 23  1  0
 23 24  1  0
  6 25  2  0
 25 26  1  0
 26 27  2  0
 27 28  1  0
 28 29  2  0
 29 30  1  0
 30 31  1  0
 29 32  1  0
 32 33  2  0
 33  3  1  0
 23  7  2  0
 33 26  1  0
 19 14  1  0
  1 34  1  0
  1 35  1  0
  1 36  1  0
  2 37  1  0
  2 38  1  0
  8 39  1  0
 10 40  1  0
 13 41  1  0
 15 42  1  0
 16 43  1  0
 17 44  1  0
 18 45  1  0
 19 46  1  0
 22 47  1  0
 25 48  1  0
 27 49  1  0
 30 50  1  0
 31 51  1  0
 31 52  1  0
 31 53  1  0
 32 54  1  0
M  END
>  <meeko>  (2) 
{"is_sidechain": false}

>  <vina_affinity_kcal_mol>  (2) 
-10.712

>  <pose_rank>  (2) 
2

$$$$

     RDKit          3D

 54 57  0  0  0  0  0  0  0  0999 V2000
  -39.9090  150.4520    5.5050 C   0  0  0  0  0  0  0  0  0  0  0  0
  -38.5650  150.4370    4.7920 C   0  0  0  0  0  0  0  0  0  0  0  0
  -37.5450  151.1900    5.5190 N   0  0  0  0  0  0  0  0  0  0  0  0
  -37.2900  152.4950    5.0890 C   0  0  0  0  0  0  0  0  0  0  0  0
  -37.8660  153.0150    4.1330 O   0  0  0  0  0  0  0  0  0  0  0  0
  -36.2600  153.2830    5.8440 C   0  0  0  0  0  0  0  0  0  0  0  0
  -35.9910  154.6880    5.4820 C   0  0  0  0  0  0  0  0  0  0  0  0
  -37.0650  155.4740    5.0190 C   0  0  0  0  0  0  0  0  0  0  0  0
  -36.8730  156.8120    4.6720 C   0  0  0  0  0  0  0  0  0  0  0  0
  -37.8950  157.6670    4.2060 N   0  0  0  0  0  0  0  0  0  0  0  0
  -38.1680  158.0110    2.8910 C   0  0  0  0  0  0  0  0  0  0  0  0
  -37.4750  157.6880    1.9360 O   0  0  0  0  0  0  0  0  0  0  0  0
  -39.3270  158.7680    2.8270 N   0  0  0  0  0  0  0  0  0  0  0  0
  -39.8870  159.3910    1.6930 C   0  0  0  0  0  0  0  0  0  0  0  0
  -39.0470  160.2220    0.9380 C   0  0  0  0  0  0  0  0  0  0  0  0
  -39.5210  160.8680   -0.2050 C   0  0  0  0  0  0  0  0  0  0  0  0
  -40.8400  160.6870   -0.6100 C   0  0  0  0  0  0  0  0  0  0  0  0
  -41.6810  159.8580    0.1280 C   0  0  0  0  0  0  0  0  0  0  0  0
  -41.2060  159.2100    1.2730 C   0  0  0  0  0  0  0  0  0  0  0  0
  -35.5930  157.3620    4.8110 C   0  0  0  0  0  0  0  0  0  0  0  0
  -35.3940  158.6510    4.4940 F   0  0  0  0  0  0  0  0  0  0  0  0
  -34.5160  156.6060    5.2580 C   0  0  0  0  0  0  0  0  0  0  0  0
  -34.7130  155.2650    5.5890 C   0  0  0  0  0  0  0  0  0  0  0  0
  -33.1930  154.2730    6.1550 Br  0  0  0  0  0  0  0  0  0  0  0  0
  -35.5740  152.7250    6.8530 C   0  0  0  0  0  0  0  0  0  0  0  0
  -35.8230  151.3420    7.2340 C   0  0  0  0  0  0  0  0  0  0  0  0
  -35.1120  150.7400    8.2610 C   0  0  0  0  0  0  0  0  0  0  0  0
  -35.2900  149.4620    8.6640 N   0  0  0  0  0  0  0  0  0  0  0  0
  -36.2110  148.7240    8.0180 C   0  0  0  0  0  0  0  0  0  0  0  0
  -36.4590  147.3950    8.4030 N   0  0  0  0  0  0  0  0  0  0  0  0
  -35.2920  146.5290    8.3480 C   0  0  0  0  0  0  0  0  0  0  0  0
  -36.9810  149.2580    6.9830 C   0  0  0  0  0  0  0  0  0  0  0  0
  -36.7920  150.5840    6.5770 C   0  0  0  0  0  0  0  0  0  0  0  0
  -39.7469  150.4502    6.5930 H   0  0  0  0  0  0  0  0  0  0  0  0
  -40.4659  151.3564    5.2187 H   0  0  0  0  0  0  0  0  0  0  0  0
  -40.4859  149.5602    5.2187 H   0  0  0  0  0  0  0  0  0  0  0  0
  -38.2299  149.3943    4.6900 H   0  0  0  0  0  0  0  0  0  0  0  0
  -38.6991  150.9128    3.8093 H   0  0  0  0  0  0  0  0  0  0  0  0
  -38.0664  155.0277    4.9300 H   0  0  0  0  0  0  0  0  0  0  0  0
  -38.3450  158.2230    4.9220 H   0  0  0  0  0  0  0  0  0  0  0  0
  -39.9030  158.7590    3.6530 H   0  0  0  0  0  0  0  0  0  0  0  0
  -38.0022  160.3665    1.2501 H   0  0  0  0  0  0  0  0  0  0  0  0
  -38.8519  161.5201   -0.7856 H   0  0  0  0  0  0  0  0  0  0  0  0
  -41.2166  161.1965   -1.5092 H   0  0  0  0  0  0  0  0  0  0  0  0
  -42.7236  159.7121   -0.1909 H   0  0  0  0  0  0  0  0  0  0  0  0
  -41.8765  158.5532    1.8466 H   0  0  0  0  0  0  0  0  0  0  0  0
  -33.5184  157.0602    5.3499 H   0  0  0  0  0  0  0  0  0  0  0  0
  -34.8201  153.3150    7.3948 H   0  0  0  0  0  0  0  0  0  0  0  0
  -34.3531  151.3421    8.7821 H   0  0  0  0  0  0  0  0  0  0  0  0
  -37.2260  147.0260    7.8490 H   0  0  0  0  0  0  0  0  0  0  0  0
  -34.9663  146.2873    9.3705 H   0  0  0  0  0  0  0  0  0  0  0  0
  -35.5487  145.6011    7.8160 H   0  0  0  0  0  0  0  0  0  0  0  0
  -34.4783  147.0436    7.8160 H   0  0  0  0  0  0  0  0  0  0  0  0
  -37.7384  148.6347    6.4852 H   0  0  0  0  0  0  0  0  0  0  0  0
  1  2  1  0
  2  3  1  0
  3  4  1  0
  4  5  2  0
  4  6  1  0
  6  7  1  0
  7  8  1  0
  8  9  2  0
  9 10  1  0
 10 11  1  0
 11 12  2  0
 11 13  1  0
 13 14  1  0
 14 15  2  0
 15 16  1  0
 16 17  2  0
 17 18  1  0
 18 19  2  0
  9 20  1  0
 20 21  1  0
 20 22  2  0
 22 23  1  0
 23 24  1  0
  6 25  2  0
 25 26  1  0
 26 27  2  0
 27 28  1  0
 28 29  2  0
 29 30  1  0
 30 31  1  0
 29 32  1  0
 32 33  2  0
 33  3  1  0
 23  7  2  0
 33 26  1  0
 19 14  1  0
  1 34  1  0
  1 35  1  0
  1 36  1  0
  2 37  1  0
  2 38  1  0
  8 39  1  0
 10 40  1  0
 13 41  1  0
 15 42  1  0
 16 43  1  0
 17 44  1  0
 18 45  1  0
 19 46  1  0
 22 47  1  0
 25 48  1  0
 27 49  1  0
 30 50  1  0
 31 51  1  0
 31 52  1  0
 31 53  1  0
 32 54  1  0
M  END
>  <meeko>  (3) 
{"is_sidechain": false}

>  <vina_affinity_kcal_mol>  (3) 
-9.344

>  <pose_rank>  (3) 
3

$$$$

     RDKit          3D

 54 57  0  0  0  0  0  0  0  0999 V2000
  -35.0510  149.2910    3.9740 C   0  0  0  0  0  0  0  0  0  0  0  0
  -34.8990  150.0930    5.2590 C   0  0  0  0  0  0  0  0  0  0  0  0
  -36.0870  150.8920    5.5560 N   0  0  0  0  0  0  0  0  0  0  0  0
  -35.9590  152.2800    5.4630 C   0  0  0  0  0  0  0  0  0  0  0  0
  -34.9040  152.8430    5.1670 O   0  0  0  0  0  0  0  0  0  0  0  0
  -37.1800  153.1070    5.7450 C   0  0  0  0  0  0  0  0  0  0  0  0
  -37.1290  154.5740    5.6020 C   0  0  0  0  0  0  0  0  0  0  0  0
  -37.9290  155.1750    4.6090 C   0  0  0  0  0  0  0  0  0  0  0  0
  -37.9290  156.5600    4.4340 C   0  0  0  0  0  0  0  0  0  0  0  0
  -38.7040  157.2380    3.4690 N   0  0  0  0  0  0  0  0  0  0  0  0
  -38.2510  157.8610    2.3150 C   0  0  0  0  0  0  0  0  0  0  0  0
  -37.0710  157.9970    2.0220 O   0  0  0  0  0  0  0  0  0  0  0  0
  -39.3260  158.3030    1.5590 N   0  0  0  0  0  0  0  0  0  0  0  0
  -39.2880  159.0650    0.3730 C   0  0  0  0  0  0  0  0  0  0  0  0
  -38.9780  158.3870   -0.8140 C   0  0  0  0  0  0  0  0  0  0  0  0
  -38.9300  159.0670   -2.0330 C   0  0  0  0  0  0  0  0  0  0  0  0
  -39.1950  160.4320   -2.0790 C   0  0  0  0  0  0  0  0  0  0  0  0
  -39.5100  161.1140   -0.9060 C   0  0  0  0  0  0  0  0  0  0  0  0
  -39.5590  160.4330    0.3150 C   0  0  0  0  0  0  0  0  0  0  0  0
  -37.1340  157.3410    5.2800 C   0  0  0  0  0  0  0  0  0  0  0  0
  -37.1330  158.6760    5.1330 F   0  0  0  0  0  0  0  0  0  0  0  0
  -36.3310  156.7730    6.2610 C   0  0  0  0  0  0  0  0  0  0  0  0
  -36.3240  155.3870    6.4200 C   0  0  0  0  0  0  0  0  0  0  0  0
  -35.1740  154.6660    7.7520 Br  0  0  0  0  0  0  0  0  0  0  0  0
  -38.3270  152.5260    6.1270 C   0  0  0  0  0  0  0  0  0  0  0  0
  -38.4060  151.0800    6.2730 C   0  0  0  0  0  0  0  0  0  0  0  0
  -39.5760  150.4620    6.6860 C   0  0  0  0  0  0  0  0  0  0  0  0
  -39.7180  149.1270    6.8430 N   0  0  0  0  0  0  0  0  0  0  0  0
  -38.6490  148.3490    6.5920 C   0  0  0  0  0  0  0  0  0  0  0  0
  -38.7380  146.9520    6.7170 N   0  0  0  0  0  0  0  0  0  0  0  0
  -39.9020  146.4900    7.4570 C   0  0  0  0  0  0  0  0  0  0  0  0
  -37.4380  148.8910    6.1580 C   0  0  0  0  0  0  0  0  0  0  0  0
  -37.3030  150.2740    5.9930 C   0  0  0  0  0  0  0  0  0  0  0  0
  -35.2506  148.2377    4.2206 H   0  0  0  0  0  0  0  0  0  0  0  0
  -35.8885  149.6951    3.3865 H   0  0  0  0  0  0  0  0  0  0  0  0
  -34.1237  149.3606    3.3865 H   0  0  0  0  0  0  0  0  0  0  0  0
  -34.7231  149.3968    6.0923 H   0  0  0  0  0  0  0  0  0  0  0  0
  -34.0524  150.7830    5.1279 H   0  0  0  0  0  0  0  0  0  0  0  0
  -38.5604  154.5455    3.9647 H   0  0  0  0  0  0  0  0  0  0  0  0
  -39.6530  157.4460    3.7520 H   0  0  0  0  0  0  0  0  0  0  0  0
  -40.2250  157.9240    1.8100 H   0  0  0  0  0  0  0  0  0  0  0  0
  -38.7702  157.3072   -0.7851 H   0  0  0  0  0  0  0  0  0  0  0  0
  -38.6827  158.5233   -2.9567 H   0  0  0  0  0  0  0  0  0  0  0  0
  -39.1559  160.9703   -3.0375 H   0  0  0  0  0  0  0  0  0  0  0  0
  -39.7212  162.1930   -0.9399 H   0  0  0  0  0  0  0  0  0  0  0  0
  -39.8128  160.9792    1.2355 H   0  0  0  0  0  0  0  0  0  0  0  0
  -35.7071  157.4095    6.9058 H   0  0  0  0  0  0  0  0  0  0  0  0
  -39.2127  153.1457    6.3310 H   0  0  0  0  0  0  0  0  0  0  0  0
  -40.4462  151.1000    6.9001 H   0  0  0  0  0  0  0  0  0  0  0  0
  -37.8750  146.5990    7.1190 H   0  0  0  0  0  0  0  0  0  0  0  0
  -39.7050  146.5682    8.5364 H   0  0  0  0  0  0  0  0  0  0  0  0
  -40.7719  147.1110    7.1971 H   0  0  0  0  0  0  0  0  0  0  0  0
  -40.1093  145.4414    7.1971 H   0  0  0  0  0  0  0  0  0  0  0  0
  -36.5864  148.2282    5.9448 H   0  0  0  0  0  0  0  0  0  0  0  0
  1  2  1  0
  2  3  1  0
  3  4  1  0
  4  5  2  0
  4  6  1  0
  6  7  1  0
  7  8  1  0
  8  9  2  0
  9 10  1  0
 10 11  1  0
 11 12  2  0
 11 13  1  0
 13 14  1  0
 14 15  2  0
 15 16  1  0
 16 17  2  0
 17 18  1  0
 18 19  2  0
  9 20  1  0
 20 21  1  0
 20 22  2  0
 22 23  1  0
 23 24  1  0
  6 25  2  0
 25 26  1  0
 26 27  2  0
 27 28  1  0
 28 29  2  0
 29 30  1  0
 30 31  1  0
 29 32  1  0
 32 33  2  0
 33  3  1  0
 23  7  2  0
 33 26  1  0
 19 14  1  0
  1 34  1  0
  1 35  1  0
  1 36  1  0
  2 37  1  0
  2 38  1  0
  8 39  1  0
 10 40  1  0
 13 41  1  0
 15 42  1  0
 16 43  1  0
 17 44  1  0
 18 45  1  0
 19 46  1  0
 22 47  1  0
 25 48  1  0
 27 49  1  0
 30 50  1  0
 31 51  1  0
 31 52  1  0
 31 53  1  0
 32 54  1  0
M  END
>  <meeko>  (4) 
{"is_sidechain": false}

>  <vina_affinity_kcal_mol>  (4) 
-8.777

>  <pose_rank>  (4) 
4

$$$$

     RDKit          3D

 54 57  0  0  0  0  0  0  0  0999 V2000
  -34.6690  145.6240   -2.4410 C   0  0  0  0  0  0  0  0  0  0  0  0
  -34.9310  147.0530   -1.9870 C   0  0  0  0  0  0  0  0  0  0  0  0
  -35.8880  147.1150   -0.8840 N   0  0  0  0  0  0  0  0  0  0  0  0
  -35.3760  146.9970    0.4110 C   0  0  0  0  0  0  0  0  0  0  0  0
  -34.1800  146.8270    0.6510 O   0  0  0  0  0  0  0  0  0  0  0  0
  -36.3490  147.0830    1.5500 C   0  0  0  0  0  0  0  0  0  0  0  0
  -35.8660  147.0300    2.9430 C   0  0  0  0  0  0  0  0  0  0  0  0
  -35.3300  148.2050    3.5070 C   0  0  0  0  0  0  0  0  0  0  0  0
  -34.8670  148.2180    4.8230 C   0  0  0  0  0  0  0  0  0  0  0  0
  -34.3220  149.3530    5.4630 N   0  0  0  0  0  0  0  0  0  0  0  0
  -34.9060  150.6040    5.5940 C   0  0  0  0  0  0  0  0  0  0  0  0
  -35.9610  150.9310    5.0690 O   0  0  0  0  0  0  0  0  0  0  0  0
  -34.1190  151.4160    6.3960 N   0  0  0  0  0  0  0  0  0  0  0  0
  -34.3120  152.7800    6.6920 C   0  0  0  0  0  0  0  0  0  0  0  0
  -33.3280  153.6770    6.2510 C   0  0  0  0  0  0  0  0  0  0  0  0
  -33.4490  155.0460    6.4950 C   0  0  0  0  0  0  0  0  0  0  0  0
  -34.5580  155.5360    7.1780 C   0  0  0  0  0  0  0  0  0  0  0  0
  -35.5440  154.6550    7.6150 C   0  0  0  0  0  0  0  0  0  0  0  0
  -35.4240  153.2830    7.3700 C   0  0  0  0  0  0  0  0  0  0  0  0
  -34.9630  147.0440    5.5780 C   0  0  0  0  0  0  0  0  0  0  0  0
  -34.5330  147.0420    6.8500 F   0  0  0  0  0  0  0  0  0  0  0  0
  -35.4800  145.8700    5.0430 C   0  0  0  0  0  0  0  0  0  0  0  0
  -35.9270  145.8610    3.7220 C   0  0  0  0  0  0  0  0  0  0  0  0
  -36.5860  144.2150    3.0340 Br  0  0  0  0  0  0  0  0  0  0  0  0
  -37.6650  147.2090    1.3190 C   0  0  0  0  0  0  0  0  0  0  0  0
  -38.1690  147.2670   -0.0450 C   0  0  0  0  0  0  0  0  0  0  0  0
  -39.5260  147.3780   -0.3070 C   0  0  0  0  0  0  0  0  0  0  0  0
  -40.0610  147.4350   -1.5470 N   0  0  0  0  0  0  0  0  0  0  0  0
  -39.2210  147.3700   -2.5950 C   0  0  0  0  0  0  0  0  0  0  0  0
  -39.7140  147.4460   -3.9100 N   0  0  0  0  0  0  0  0  0  0  0  0
  -41.1170  147.0880   -4.0450 C   0  0  0  0  0  0  0  0  0  0  0  0
  -37.8400  147.2730   -2.4190 C   0  0  0  0  0  0  0  0  0  0  0  0
  -37.2950  147.2200   -1.1310 C   0  0  0  0  0  0  0  0  0  0  0  0
  -34.5501  144.9755   -1.5605 H   0  0  0  0  0  0  0  0  0  0  0  0
  -35.5172  145.2699   -3.0453 H   0  0  0  0  0  0  0  0  0  0  0  0
  -33.7504  145.5939   -3.0453 H   0  0  0  0  0  0  0  0  0  0  0  0
  -33.9813  147.4998   -1.6576 H   0  0  0  0  0  0  0  0  0  0  0  0
  -35.3592  147.6043   -2.8371 H   0  0  0  0  0  0  0  0  0  0  0  0
  -35.2761  149.1225    2.9026 H   0  0  0  0  0  0  0  0  0  0  0  0
  -33.3360  149.2900    5.6770 H   0  0  0  0  0  0  0  0  0  0  0  0
  -33.4090  150.9450    6.9340 H   0  0  0  0  0  0  0  0  0  0  0  0
  -32.4508  153.2972    5.7066 H   0  0  0  0  0  0  0  0  0  0  0  0
  -32.6675  155.7377    6.1473 H   0  0  0  0  0  0  0  0  0  0  0  0
  -34.6554  156.6144    7.3718 H   0  0  0  0  0  0  0  0  0  0  0  0
  -36.4214  155.0398    8.1554 H   0  0  0  0  0  0  0  0  0  0  0  0
  -36.2111  152.5958    7.7138 H   0  0  0  0  0  0  0  0  0  0  0  0
  -35.5360  144.9577    5.6550 H   0  0  0  0  0  0  0  0  0  0  0  0
  -38.3660  147.2687    2.1646 H   0  0  0  0  0  0  0  0  0  0  0  0
  -40.2127  147.4227    0.5511 H   0  0  0  0  0  0  0  0  0  0  0  0
  -39.1240  146.8860   -4.5180 H   0  0  0  0  0  0  0  0  0  0  0  0
  -41.5640  146.9739   -3.0464 H   0  0  0  0  0  0  0  0  0  0  0  0
  -41.6462  147.8799   -4.5953 H   0  0  0  0  0  0  0  0  0  0  0  0
  -41.2020  146.1394   -4.5953 H   0  0  0  0  0  0  0  0  0  0  0  0
  -37.1771  147.2380   -3.2961 H   0  0  0  0  0  0  0  0  0  0  0  0
  1  2  1  0
  2  3  1  0
  3  4  1  0
  4  5  2  0
  4  6  1  0
  6  7  1  0
  7  8  1  0
  8  9  2  0
  9 10  1  0
 10 11  1  0
 11 12  2  0
 11 13  1  0
 13 14  1  0
 14 15  2  0
 15 16  1  0
 16 17  2  0
 17 18  1  0
 18 19  2  0
  9 20  1  0
 20 21  1  0
 20 22  2  0
 22 23  1  0
 23 24  1  0
  6 25  2  0
 25 26  1  0
 26 27  2  0
 27 28  1  0
 28 29  2  0
 29 30  1  0
 30 31  1  0
 29 32  1  0
 32 33  2  0
 33  3  1  0
 23  7  2  0
 33 26  1  0
 19 14  1  0
  1 34  1  0
  1 35  1  0
  1 36  1  0
  2 37  1  0
  2 38  1  0
  8 39  1  0
 10 40  1  0
 13 41  1  0
 15 42  1  0
 16 43  1  0
 17 44  1  0
 18 45  1  0
 19 46  1  0
 22 47  1  0
 25 48  1  0
 27 49  1  0
 30 50  1  0
 31 51  1  0
 31 52  1  0
 31 53  1  0
 32 54  1  0
M  END
>  <meeko>  (5) 
{"is_sidechain": false}

>  <vina_affinity_kcal_mol>  (5) 
-8.638

>  <pose_rank>  (5) 
5

$$$$

     RDKit          3D

 54 57  0  0  0  0  0  0  0  0999 V2000
  -34.0810  144.7890    2.5780 C   0  0  0  0  0  0  0  0  0  0  0  0
  -35.5510  144.6870    2.1980 C   0  0  0  0  0  0  0  0  0  0  0  0
  -36.1350  145.9920    1.8930 N   0  0  0  0  0  0  0  0  0  0  0  0
  -36.7820  146.6590    2.9370 C   0  0  0  0  0  0  0  0  0  0  0  0
  -36.8930  146.1920    4.0710 O   0  0  0  0  0  0  0  0  0  0  0  0
  -37.3650  148.0090    2.6370 C   0  0  0  0  0  0  0  0  0  0  0  0
  -38.0050  148.7940    3.7110 C   0  0  0  0  0  0  0  0  0  0  0  0
  -37.2220  149.7400    4.4010 C   0  0  0  0  0  0  0  0  0  0  0  0
  -37.7760  150.5190    5.4190 C   0  0  0  0  0  0  0  0  0  0  0  0
  -37.0620  151.4900    6.1530 N   0  0  0  0  0  0  0  0  0  0  0  0
  -36.9220  152.8360    5.8500 C   0  0  0  0  0  0  0  0  0  0  0  0
  -37.3270  153.3580    4.8210 O   0  0  0  0  0  0  0  0  0  0  0  0
  -36.2590  153.4900    6.8780 N   0  0  0  0  0  0  0  0  0  0  0  0
  -35.8370  154.8340    6.9120 C   0  0  0  0  0  0  0  0  0  0  0  0
  -34.4700  155.0820    6.7270 C   0  0  0  0  0  0  0  0  0  0  0  0
  -33.9730  156.3870    6.7370 C   0  0  0  0  0  0  0  0  0  0  0  0
  -34.8380  157.4600    6.9280 C   0  0  0  0  0  0  0  0  0  0  0  0
  -36.1990  157.2250    7.1060 C   0  0  0  0  0  0  0  0  0  0  0  0
  -36.6980  155.9180    7.0950 C   0  0  0  0  0  0  0  0  0  0  0  0
  -39.1310  150.3530    5.7260 C   0  0  0  0  0  0  0  0  0  0  0  0
  -39.6820  151.1030    6.6940 F   0  0  0  0  0  0  0  0  0  0  0  0
  -39.9220  149.4210    5.0650 C   0  0  0  0  0  0  0  0  0  0  0  0
  -39.3580  148.6360    4.0600 C   0  0  0  0  0  0  0  0  0  0  0  0
  -40.4810  147.3510    3.2210 Br  0  0  0  0  0  0  0  0  0  0  0  0
  -37.3120  148.5190    1.3970 C   0  0  0  0  0  0  0  0  0  0  0  0
  -36.6830  147.7680    0.3210 C   0  0  0  0  0  0  0  0  0  0  0  0
  -36.6350  148.2680   -0.9720 C   0  0  0  0  0  0  0  0  0  0  0  0
  -36.0700  147.6240   -2.0170 N   0  0  0  0  0  0  0  0  0  0  0  0
  -35.5280  146.4140   -1.7890 C   0  0  0  0  0  0  0  0  0  0  0  0
  -34.9060  145.7020   -2.8300 N   0  0  0  0  0  0  0  0  0  0  0  0
  -33.5420  145.2900   -2.5400 C   0  0  0  0  0  0  0  0  0  0  0  0
  -35.5210  145.8450   -0.5140 C   0  0  0  0  0  0  0  0  0  0  0  0
  -36.1040  146.5230    0.5630 C   0  0  0  0  0  0  0  0  0  0  0  0
  -33.9852  144.7957    3.6738 H   0  0  0  0  0  0  0  0  0  0  0  0
  -33.5354  143.9266    2.1674 H   0  0  0  0  0  0  0  0  0  0  0  0
  -33.6598  145.7185    2.1674 H   0  0  0  0  0  0  0  0  0  0  0  0
  -35.6438  144.0417    1.3120 H   0  0  0  0  0  0  0  0  0  0  0  0
  -36.0935  144.2672    3.0580 H   0  0  0  0  0  0  0  0  0  0  0  0
  -36.1622  149.8666    4.1349 H   0  0  0  0  0  0  0  0  0  0  0  0
  -36.4430  151.1200    6.8630 H   0  0  0  0  0  0  0  0  0  0  0  0
  -36.1920  152.9850    7.7480 H   0  0  0  0  0  0  0  0  0  0  0  0
  -33.7806  154.2389    6.5721 H   0  0  0  0  0  0  0  0  0  0  0  0
  -32.8973  156.5667    6.5938 H   0  0  0  0  0  0  0  0  0  0  0  0
  -34.4487  158.4888    6.9383 H   0  0  0  0  0  0  0  0  0  0  0  0
  -36.8853  158.0714    7.2560 H   0  0  0  0  0  0  0  0  0  0  0  0
  -37.7754  155.7432    7.2314 H   0  0  0  0  0  0  0  0  0  0  0  0
  -40.9826  149.3037    5.3320 H   0  0  0  0  0  0  0  0  0  0  0  0
  -37.7459  149.5090    1.1930 H   0  0  0  0  0  0  0  0  0  0  0  0
  -37.0865  149.2535   -1.1590 H   0  0  0  0  0  0  0  0  0  0  0  0
  -34.9580  146.2490   -3.6840 H   0  0  0  0  0  0  0  0  0  0  0  0
  -33.3961  145.2459   -1.4506 H   0  0  0  0  0  0  0  0  0  0  0  0
  -33.3587  144.2964   -2.9750 H   0  0  0  0  0  0  0  0  0  0  0  0
  -32.8393  146.0160   -2.9750 H   0  0  0  0  0  0  0  0  0  0  0  0
  -35.0559  144.8609   -0.3553 H   0  0  0  0  0  0  0  0  0  0  0  0
  1  2  1  0
  2  3  1  0
  3  4  1  0
  4  5  2  0
  4  6  1  0
  6  7  1  0
  7  8  1  0
  8  9  2  0
  9 10  1  0
 10 11  1  0
 11 12  2  0
 11 13  1  0
 13 14  1  0
 14 15  2  0
 15 16  1  0
 16 17  2  0
 17 18  1  0
 18 19  2  0
  9 20  1  0
 20 21  1  0
 20 22  2  0
 22 23  1  0
 23 24  1  0
  6 25  2  0
 25 26  1  0
 26 27  2  0
 27 28  1  0
 28 29  2  0
 29 30  1  0
 30 31  1  0
 29 32  1  0
 32 33  2  0
 33  3  1  0
 23  7  2  0
 33 26  1  0
 19 14  1  0
  1 34  1  0
  1 35  1  0
  1 36  1  0
  2 37  1  0
  2 38  1  0
  8 39  1  0
 10 40  1  0
 13 41  1  0
 15 42  1  0
 16 43  1  0
 17 44  1  0
 18 45  1  0
 19 46  1  0
 22 47  1  0
 25 48  1  0
 27 49  1  0
 30 50  1  0
 31 51  1  0
 31 52  1  0
 31 53  1  0
 32 54  1  0
M  END
>  <meeko>  (6) 
{"is_sidechain": false}

>  <vina_affinity_kcal_mol>  (6) 
-8.572

>  <pose_rank>  (6) 
6

$$$$

     RDKit          3D

 54 57  0  0  0  0  0  0  0  0999 V2000
  -34.5120  147.0040   -1.5610 C   0  0  0  0  0  0  0  0  0  0  0  0
  -35.2340  148.2960   -1.2080 C   0  0  0  0  0  0  0  0  0  0  0  0
  -36.1490  148.1280   -0.0790 N   0  0  0  0  0  0  0  0  0  0  0  0
  -35.6080  148.2580    1.2030 C   0  0  0  0  0  0  0  0  0  0  0  0
  -34.4160  148.4850    1.4130 O   0  0  0  0  0  0  0  0  0  0  0  0
  -36.5440  148.1090    2.3660 C   0  0  0  0  0  0  0  0  0  0  0  0
  -36.0500  148.2980    3.7430 C   0  0  0  0  0  0  0  0  0  0  0  0
  -36.2500  149.5520    4.3550 C   0  0  0  0  0  0  0  0  0  0  0  0
  -35.8140  149.7860    5.6600 C   0  0  0  0  0  0  0  0  0  0  0  0
  -35.9800  151.0090    6.3460 N   0  0  0  0  0  0  0  0  0  0  0  0
  -35.4640  152.2470    5.9930 C   0  0  0  0  0  0  0  0  0  0  0  0
  -34.6900  152.4320    5.0640 O   0  0  0  0  0  0  0  0  0  0  0  0
  -35.9520  153.2270    6.8430 N   0  0  0  0  0  0  0  0  0  0  0  0
  -35.5970  154.5910    6.8790 C   0  0  0  0  0  0  0  0  0  0  0  0
  -36.6420  155.5240    6.9170 C   0  0  0  0  0  0  0  0  0  0  0  0
  -36.3740  156.8940    6.9630 C   0  0  0  0  0  0  0  0  0  0  0  0
  -35.0580  157.3460    6.9770 C   0  0  0  0  0  0  0  0  0  0  0  0
  -34.0120  156.4270    6.9450 C   0  0  0  0  0  0  0  0  0  0  0  0
  -34.2800  155.0540    6.9000 C   0  0  0  0  0  0  0  0  0  0  0  0
  -35.1900  148.7440    6.3550 C   0  0  0  0  0  0  0  0  0  0  0  0
  -34.7750  148.9490    7.6150 F   0  0  0  0  0  0  0  0  0  0  0  0
  -34.9740  147.5010    5.7700 C   0  0  0  0  0  0  0  0  0  0  0  0
  -35.4000  147.2790    4.4610 C   0  0  0  0  0  0  0  0  0  0  0  0
  -35.0400  145.5730    3.7030 Br  0  0  0  0  0  0  0  0  0  0  0  0
  -37.8360  147.8030    2.1710 C   0  0  0  0  0  0  0  0  0  0  0  0
  -38.3510  147.6140    0.8220 C   0  0  0  0  0  0  0  0  0  0  0  0
  -39.6780  147.2790    0.6000 C   0  0  0  0  0  0  0  0  0  0  0  0
  -40.2200  147.0880   -0.6230 N   0  0  0  0  0  0  0  0  0  0  0  0
  -39.4160  147.2210   -1.6930 C   0  0  0  0  0  0  0  0  0  0  0  0
  -39.9250  147.0550   -2.9940 N   0  0  0  0  0  0  0  0  0  0  0  0
  -40.8670  145.9560   -3.1310 C   0  0  0  0  0  0  0  0  0  0  0  0
  -38.0710  147.5710   -1.5580 C   0  0  0  0  0  0  0  0  0  0  0  0
  -37.5200  147.7730   -0.2870 C   0  0  0  0  0  0  0  0  0  0  0  0
  -34.2206  146.4826   -0.6373 H   0  0  0  0  0  0  0  0  0  0  0  0
  -35.1807  146.3595   -2.1505 H   0  0  0  0  0  0  0  0  0  0  0  0
  -33.6127  147.2358   -2.1505 H   0  0  0  0  0  0  0  0  0  0  0  0
  -34.4863  149.0596   -0.9472 H   0  0  0  0  0  0  0  0  0  0  0  0
  -35.8289  148.5996   -2.0820 H   0  0  0  0  0  0  0  0  0  0  0  0
  -36.7552  150.3548    3.7980 H   0  0  0  0  0  0  0  0  0  0  0  0
  -36.3530  150.9250    7.2830 H   0  0  0  0  0  0  0  0  0  0  0  0
  -36.7460  152.9640    7.4060 H   0  0  0  0  0  0  0  0  0  0  0  0
  -37.6847  155.1736    6.9105 H   0  0  0  0  0  0  0  0  0  0  0  0
  -37.2036  157.6159    6.9882 H   0  0  0  0  0  0  0  0  0  0  0  0
  -34.8448  158.4245    7.0132 H   0  0  0  0  0  0  0  0  0  0  0  0
  -32.9708  156.7817    6.9551 H   0  0  0  0  0  0  0  0  0  0  0  0
  -33.4476  154.3351    6.8811 H   0  0  0  0  0  0  0  0  0  0  0  0
  -34.4722  146.7011    6.3342 H   0  0  0  0  0  0  0  0  0  0  0  0
  -38.5092  147.6944    3.0342 H   0  0  0  0  0  0  0  0  0  0  0  0
  -40.3321  147.1611    1.4765 H   0  0  0  0  0  0  0  0  0  0  0  0
  -39.1500  146.9670   -3.6440 H   0  0  0  0  0  0  0  0  0  0  0  0
  -41.1682  145.6046   -2.1331 H   0  0  0  0  0  0  0  0  0  0  0  0
  -41.7547  146.3004   -3.6818 H   0  0  0  0  0  0  0  0  0  0  0  0
  -40.3908  145.1314   -3.6818 H   0  0  0  0  0  0  0  0  0  0  0  0
  -37.4425  147.6884   -2.4531 H   0  0  0  0  0  0  0  0  0  0  0  0
  1  2  1  0
  2  3  1  0
  3  4  1  0
  4  5  2  0
  4  6  1  0
  6  7  1  0
  7  8  1  0
  8  9  2  0
  9 10  1  0
 10 11  1  0
 11 12  2  0
 11 13  1  0
 13 14  1  0
 14 15  2  0
 15 16  1  0
 16 17  2  0
 17 18  1  0
 18 19  2  0
  9 20  1  0
 20 21  1  0
 20 22  2  0
 22 23  1  0
 23 24  1  0
  6 25  2  0
 25 26  1  0
 26 27  2  0
 27 28  1  0
 28 29  2  0
 29 30  1  0
 30 31  1  0
 29 32  1  0
 32 33  2  0
 33  3  1  0
 23  7  2  0
 33 26  1  0
 19 14  1  0
  1 34  1  0
  1 35  1  0
  1 36  1  0
  2 37  1  0
  2 38  1  0
  8 39  1  0
 10 40  1  0
 13 41  1  0
 15 42  1  0
 16 43  1  0
 17 44  1  0
 18 45  1  0
 19 46  1  0
 22 47  1  0
 25 48  1  0
 27 49  1  0
 30 50  1  0
 31 51  1  0
 31 52  1  0
 31 53  1  0
 32 54  1  0
M  END
>  <meeko>  (7) 
{"is_sidechain": false}

>  <vina_affinity_kcal_mol>  (7) 
-8.514

>  <pose_rank>  (7) 
7

$$$$

     RDKit          3D

 54 57  0  0  0  0  0  0  0  0999 V2000
  -34.4290  149.5860    8.6640 C   0  0  0  0  0  0  0  0  0  0  0  0
  -35.8360  150.1660    8.6580 C   0  0  0  0  0  0  0  0  0  0  0  0
  -36.2280  150.6510    7.3360 N   0  0  0  0  0  0  0  0  0  0  0  0
  -36.0510  152.0140    7.0810 C   0  0  0  0  0  0  0  0  0  0  0  0
  -35.6050  152.8050    7.9130 O   0  0  0  0  0  0  0  0  0  0  0  0
  -36.4310  152.5170    5.7190 C   0  0  0  0  0  0  0  0  0  0  0  0
  -36.2080  153.9310    5.3640 C   0  0  0  0  0  0  0  0  0  0  0  0
  -37.3150  154.6920    4.9350 C   0  0  0  0  0  0  0  0  0  0  0  0
  -37.1670  156.0380    4.5960 C   0  0  0  0  0  0  0  0  0  0  0  0
  -38.2230  156.8690    4.1640 N   0  0  0  0  0  0  0  0  0  0  0  0
  -38.3380  157.5130    2.9410 C   0  0  0  0  0  0  0  0  0  0  0  0
  -37.4660  157.5270    2.0840 O   0  0  0  0  0  0  0  0  0  0  0  0
  -39.5750  158.1310    2.8430 N   0  0  0  0  0  0  0  0  0  0  0  0
  -40.0410  158.9630    1.8050 C   0  0  0  0  0  0  0  0  0  0  0  0
  -41.4300  159.1110    1.6770 C   0  0  0  0  0  0  0  0  0  0  0  0
  -41.9720  159.9250    0.6800 C   0  0  0  0  0  0  0  0  0  0  0  0
  -41.1320  160.6050   -0.1960 C   0  0  0  0  0  0  0  0  0  0  0  0
  -39.7520  160.4710   -0.0730 C   0  0  0  0  0  0  0  0  0  0  0  0
  -39.2080  159.6560    0.9250 C   0  0  0  0  0  0  0  0  0  0  0  0
  -35.9000  156.6220    4.7100 C   0  0  0  0  0  0  0  0  0  0  0  0
  -35.7430  157.9190    4.4000 F   0  0  0  0  0  0  0  0  0  0  0  0
  -34.7920  155.8910    5.1230 C   0  0  0  0  0  0  0  0  0  0  0  0
  -34.9450  154.5430    5.4450 C   0  0  0  0  0  0  0  0  0  0  0  0
  -33.3850  153.5860    5.9640 Br  0  0  0  0  0  0  0  0  0  0  0  0
  -36.9740  151.6920    4.8110 C   0  0  0  0  0  0  0  0  0  0  0  0
  -37.2010  150.2910    5.1340 C   0  0  0  0  0  0  0  0  0  0  0  0
  -37.7780  149.4260    4.2160 C   0  0  0  0  0  0  0  0  0  0  0  0
  -38.0190  148.1170    4.4510 N   0  0  0  0  0  0  0  0  0  0  0  0
  -37.6850  147.6240    5.6570 C   0  0  0  0  0  0  0  0  0  0  0  0
  -37.8900  146.2660    5.9560 N   0  0  0  0  0  0  0  0  0  0  0  0
  -37.7560  145.9370    7.3660 C   0  0  0  0  0  0  0  0  0  0  0  0
  -37.0850  148.4240    6.6320 C   0  0  0  0  0  0  0  0  0  0  0  0
  -36.8350  149.7770    6.3780 C   0  0  0  0  0  0  0  0  0  0  0  0
  -34.0938  149.4478    9.7025 H   0  0  0  0  0  0  0  0  0  0  0  0
  -34.4304  148.6151    8.1469 H   0  0  0  0  0  0  0  0  0  0  0  0
  -33.7458  150.2758    8.1469 H   0  0  0  0  0  0  0  0  0  0  0  0
  -36.5428  149.3839    8.9723 H   0  0  0  0  0  0  0  0  0  0  0  0
  -35.8515  151.0213    9.3496 H   0  0  0  0  0  0  0  0  0  0  0  0
  -38.3061  154.2197    4.8667 H   0  0  0  0  0  0  0  0  0  0  0  0
  -38.8570  157.1680    4.8940 H   0  0  0  0  0  0  0  0  0  0  0  0
  -40.2640  157.8450    3.5200 H   0  0  0  0  0  0  0  0  0  0  0  0
  -42.0997  158.5801    2.3695 H   0  0  0  0  0  0  0  0  0  0  0  0
  -43.0632  160.0285    0.5874 H   0  0  0  0  0  0  0  0  0  0  0  0
  -41.5567  161.2460   -0.9827 H   0  0  0  0  0  0  0  0  0  0  0  0
  -39.0861  161.0086   -0.7640 H   0  0  0  0  0  0  0  0  0  0  0  0
  -38.1160  159.5605    1.0171 H   0  0  0  0  0  0  0  0  0  0  0  0
  -33.8049  156.3710    5.1950 H   0  0  0  0  0  0  0  0  0  0  0  0
  -37.2490  152.0762    3.8176 H   0  0  0  0  0  0  0  0  0  0  0  0
  -38.0577  149.8318    3.2326 H   0  0  0  0  0  0  0  0  0  0  0  0
  -37.2730  145.7020    5.3790 H   0  0  0  0  0  0  0  0  0  0  0  0
  -38.1015  146.7854    7.9749 H   0  0  0  0  0  0  0  0  0  0  0  0
  -38.3643  145.0496    7.5949 H   0  0  0  0  0  0  0  0  0  0  0  0
  -36.7007  145.7271    7.5949 H   0  0  0  0  0  0  0  0  0  0  0  0
  -36.8079  147.9886    7.6034 H   0  0  0  0  0  0  0  0  0  0  0  0
  1  2  1  0
  2  3  1  0
  3  4  1  0
  4  5  2  0
  4  6  1  0
  6  7  1  0
  7  8  1  0
  8  9  2  0
  9 10  1  0
 10 11  1  0
 11 12  2  0
 11 13  1  0
 13 14  1  0
 14 15  2  0
 15 16  1  0
 16 17  2  0
 17 18  1  0
 18 19  2  0
  9 20  1  0
 20 21  1  0
 20 22  2  0
 22 23  1  0
 23 24  1  0
  6 25  2  0
 25 26  1  0
 26 27  2  0
 27 28  1  0
 28 29  2  0
 29 30  1  0
 30 31  1  0
 29 32  1  0
 32 33  2  0
 33  3  1  0
 23  7  2  0
 33 26  1  0
 19 14  1  0
  1 34  1  0
  1 35  1  0
  1 36  1  0
  2 37  1  0
  2 38  1  0
  8 39  1  0
 10 40  1  0
 13 41  1  0
 15 42  1  0
 16 43  1  0
 17 44  1  0
 18 45  1  0
 19 46  1  0
 22 47  1  0
 25 48  1  0
 27 49  1  0
 30 50  1  0
 31 51  1  0
 31 52  1  0
 31 53  1  0
 32 54  1  0
M  END
>  <meeko>  (8) 
{"is_sidechain": false}

>  <vina_affinity_kcal_mol>  (8) 
-8.445

>  <pose_rank>  (8) 
8

$$$$

     RDKit          3D

 54 57  0  0  0  0  0  0  0  0999 V2000
  -38.9420  146.3830    1.4920 C   0  0  0  0  0  0  0  0  0  0  0  0
  -38.1130  147.5850    1.0650 C   0  0  0  0  0  0  0  0  0  0  0  0
  -36.8420  147.6630    1.7830 N   0  0  0  0  0  0  0  0  0  0  0  0
  -36.8290  148.3870    2.9780 C   0  0  0  0  0  0  0  0  0  0  0  0
  -37.8200  148.9630    3.4290 O   0  0  0  0  0  0  0  0  0  0  0  0
  -35.5330  148.4530    3.7320 C   0  0  0  0  0  0  0  0  0  0  0  0
  -35.4680  149.1460    5.0330 C   0  0  0  0  0  0  0  0  0  0  0  0
  -35.1680  150.5230    5.0390 C   0  0  0  0  0  0  0  0  0  0  0  0
  -35.1030  151.2340    6.2380 C   0  0  0  0  0  0  0  0  0  0  0  0
  -34.8150  152.6130    6.3300 N   0  0  0  0  0  0  0  0  0  0  0  0
  -35.6120  153.6680    5.9120 C   0  0  0  0  0  0  0  0  0  0  0  0
  -36.6610  153.5380    5.2960 O   0  0  0  0  0  0  0  0  0  0  0  0
  -35.0430  154.8740    6.2890 N   0  0  0  0  0  0  0  0  0  0  0  0
  -35.4890  156.1730    5.9710 C   0  0  0  0  0  0  0  0  0  0  0  0
  -36.0400  156.9340    7.0120 C   0  0  0  0  0  0  0  0  0  0  0  0
  -36.4970  158.2330    6.7820 C   0  0  0  0  0  0  0  0  0  0  0  0
  -36.4040  158.7890    5.5100 C   0  0  0  0  0  0  0  0  0  0  0  0
  -35.8530  158.0440    4.4700 C   0  0  0  0  0  0  0  0  0  0  0  0
  -35.3940  156.7420    4.7000 C   0  0  0  0  0  0  0  0  0  0  0  0
  -35.3630  150.5550    7.4340 C   0  0  0  0  0  0  0  0  0  0  0  0
  -35.3180  151.2260    8.5960 F   0  0  0  0  0  0  0  0  0  0  0  0
  -35.6540  149.1960    7.4550 C   0  0  0  0  0  0  0  0  0  0  0  0
  -35.7020  148.4890    6.2530 C   0  0  0  0  0  0  0  0  0  0  0  0
  -36.0640  146.6250    6.3500 Br  0  0  0  0  0  0  0  0  0  0  0  0
  -34.4230  147.8860    3.2370 C   0  0  0  0  0  0  0  0  0  0  0  0
  -34.4600  147.1930    1.9580 C   0  0  0  0  0  0  0  0  0  0  0  0
  -33.3190  146.6160    1.4190 C   0  0  0  0  0  0  0  0  0  0  0  0
  -33.2820  145.9610    0.2370 N   0  0  0  0  0  0  0  0  0  0  0  0
  -34.4250  145.8710   -0.4650 C   0  0  0  0  0  0  0  0  0  0  0  0
  -34.4570  145.1840   -1.6920 N   0  0  0  0  0  0  0  0  0  0  0  0
  -35.2120  145.8590   -2.7360 C   0  0  0  0  0  0  0  0  0  0  0  0
  -35.6210  146.4110    0.0120 C   0  0  0  0  0  0  0  0  0  0  0  0
  -35.6500  147.0830    1.2400 C   0  0  0  0  0  0  0  0  0  0  0  0
  -38.9765  146.3329    2.5903 H   0  0  0  0  0  0  0  0  0  0  0  0
  -39.9638  146.4834    1.0972 H   0  0  0  0  0  0  0  0  0  0  0  0
  -38.4851  145.4636    1.0972 H   0  0  0  0  0  0  0  0  0  0  0  0
  -37.9068  147.5081   -0.0128 H   0  0  0  0  0  0  0  0  0  0  0  0
  -38.6890  148.4925    1.2989 H   0  0  0  0  0  0  0  0  0  0  0  0
  -34.9830  151.0433    4.0877 H   0  0  0  0  0  0  0  0  0  0  0  0
  -33.8520  152.8330    6.5520 H   0  0  0  0  0  0  0  0  0  0  0  0
  -34.3090  154.8170    6.9780 H   0  0  0  0  0  0  0  0  0  0  0  0
  -36.1130  156.5026    8.0212 H   0  0  0  0  0  0  0  0  0  0  0  0
  -36.9308  158.8172    7.6069 H   0  0  0  0  0  0  0  0  0  0  0  0
  -36.7639  159.8121    5.3265 H   0  0  0  0  0  0  0  0  0  0  0  0
  -35.7783  158.4810    3.4633 H   0  0  0  0  0  0  0  0  0  0  0  0
  -34.9555  156.1633    3.8737 H   0  0  0  0  0  0  0  0  0  0  0  0
  -35.8445  148.6832    8.4093 H   0  0  0  0  0  0  0  0  0  0  0  0
  -33.4801  147.9451    3.8005 H   0  0  0  0  0  0  0  0  0  0  0  0
  -32.3830  146.6969    1.9911 H   0  0  0  0  0  0  0  0  0  0  0  0
  -34.7970  144.2400   -1.5350 H   0  0  0  0  0  0  0  0  0  0  0  0
  -35.9573  146.5253   -2.2771 H   0  0  0  0  0  0  0  0  0  0  0  0
  -34.5262  146.4507   -3.3602 H   0  0  0  0  0  0  0  0  0  0  0  0
  -35.7235  145.1115   -3.3602 H   0  0  0  0  0  0  0  0  0  0  0  0
  -36.5432  146.3082   -0.5787 H   0  0  0  0  0  0  0  0  0  0  0  0
  1  2  1  0
  2  3  1  0
  3  4  1  0
  4  5  2  0
  4  6  1  0
  6  7  1  0
  7  8  1  0
  8  9  2  0
  9 10  1  0
 10 11  1  0
 11 12  2  0
 11 13  1  0
 13 14  1  0
 14 15  2  0
 15 16  1  0
 16 17  2  0
 17 18  1  0
 18 19  2  0
  9 20  1  0
 20 21  1  0
 20 22  2  0
 22 23  1  0
 23 24  1  0
  6 25  2  0
 25 26  1  0
 26 27  2  0
 27 28  1  0
 28 29  2  0
 29 30  1  0
 30 31  1  0
 29 32  1  0
 32 33  2  0
 33  3  1  0
 23  7  2  0
 33 26  1  0
 19 14  1  0
  1 34  1  0
  1 35  1  0
  1 36  1  0
  2 37  1  0
  2 38  1  0
  8 39  1  0
 10 40  1  0
 13 41  1  0
 15 42  1  0
 16 43  1  0
 17 44  1  0
 18 45  1  0
 19 46  1  0
 22 47  1  0
 25 48  1  0
 27 49  1  0
 30 50  1  0
 31 51  1  0
 31 52  1  0
 31 53  1  0
 32 54  1  0
M  END
>  <meeko>  (9) 
{"is_sidechain": false}

>  <vina_affinity_kcal_mol>  (9) 
-8.322

>  <pose_rank>  (9) 
9

$$$$

     RDKit          3D

 54 57  0  0  0  0  0  0  0  0999 V2000
  -38.5300  146.1870   -1.0100 C   0  0  0  0  0  0  0  0  0  0  0  0
  -37.9570  147.5900   -0.8770 C   0  0  0  0  0  0  0  0  0  0  0  0
  -37.2560  147.7840    0.3920 N   0  0  0  0  0  0  0  0  0  0  0  0
  -38.0010  148.2940    1.4580 C   0  0  0  0  0  0  0  0  0  0  0  0
  -39.1910  148.5980    1.3670 O   0  0  0  0  0  0  0  0  0  0  0  0
  -37.2950  148.4750    2.7700 C   0  0  0  0  0  0  0  0  0  0  0  0
  -38.0400  148.9490    3.9520 C   0  0  0  0  0  0  0  0  0  0  0  0
  -37.8240  150.2710    4.3890 C   0  0  0  0  0  0  0  0  0  0  0  0
  -38.5080  150.7780    5.4960 C   0  0  0  0  0  0  0  0  0  0  0  0
  -38.3530  152.0900    5.9930 N   0  0  0  0  0  0  0  0  0  0  0  0
  -37.2240  152.8910    5.9110 C   0  0  0  0  0  0  0  0  0  0  0  0
  -36.1450  152.5200    5.4700 O   0  0  0  0  0  0  0  0  0  0  0  0
  -37.5020  154.1580    6.4010 N   0  0  0  0  0  0  0  0  0  0  0  0
  -36.6020  155.2280    6.5800 C   0  0  0  0  0  0  0  0  0  0  0  0
  -35.3720  154.9360    7.1860 C   0  0  0  0  0  0  0  0  0  0  0  0
  -34.4210  155.9380    7.3910 C   0  0  0  0  0  0  0  0  0  0  0  0
  -34.6870  157.2430    6.9870 C   0  0  0  0  0  0  0  0  0  0  0  0
  -35.9030  157.5430    6.3780 C   0  0  0  0  0  0  0  0  0  0  0  0
  -36.8560  156.5390    6.1720 C   0  0  0  0  0  0  0  0  0  0  0  0
  -39.4290  149.9510    6.1490 C   0  0  0  0  0  0  0  0  0  0  0  0
  -40.1050  150.4280    7.2070 F   0  0  0  0  0  0  0  0  0  0  0  0
  -39.6540  148.6420    5.7420 C   0  0  0  0  0  0  0  0  0  0  0  0
  -38.9550  148.1380    4.6460 C   0  0  0  0  0  0  0  0  0  0  0  0
  -39.2770  146.3270    4.1620 Br  0  0  0  0  0  0  0  0  0  0  0  0
  -35.9850  148.2090    2.8860 C   0  0  0  0  0  0  0  0  0  0  0  0
  -35.2270  147.7370    1.7360 C   0  0  0  0  0  0  0  0  0  0  0  0
  -33.8680  147.4750    1.8290 C   0  0  0  0  0  0  0  0  0  0  0  0
  -33.1050  147.0370    0.8030 N   0  0  0  0  0  0  0  0  0  0  0  0
  -33.7020  146.8540   -0.3880 C   0  0  0  0  0  0  0  0  0  0  0  0
  -32.9670  146.3800   -1.4890 N   0  0  0  0  0  0  0  0  0  0  0  0
  -33.7330  145.5520   -2.4070 C   0  0  0  0  0  0  0  0  0  0  0  0
  -35.0690  147.0800   -0.5630 C   0  0  0  0  0  0  0  0  0  0  0  0
  -35.8520  147.5280    0.5070 C   0  0  0  0  0  0  0  0  0  0  0  0
  -38.7024  145.7649   -0.0089 H   0  0  0  0  0  0  0  0  0  0  0  0
  -39.4824  146.2304   -1.5586 H   0  0  0  0  0  0  0  0  0  0  0  0
  -37.8195  145.5512   -1.5586 H   0  0  0  0  0  0  0  0  0  0  0  0
  -37.2503  147.7634   -1.7019 H   0  0  0  0  0  0  0  0  0  0  0  0
  -38.7955  148.3012   -0.9110 H   0  0  0  0  0  0  0  0  0  0  0  0
  -37.1084  150.9111    3.8521 H   0  0  0  0  0  0  0  0  0  0  0  0
  -39.0760  152.3920    6.6330 H   0  0  0  0  0  0  0  0  0  0  0  0
  -38.4780  154.3810    6.5140 H   0  0  0  0  0  0  0  0  0  0  0  0
  -35.1534  153.9058    7.5037 H   0  0  0  0  0  0  0  0  0  0  0  0
  -33.4617  155.6958    7.8718 H   0  0  0  0  0  0  0  0  0  0  0  0
  -33.9399  158.0342    7.1480 H   0  0  0  0  0  0  0  0  0  0  0  0
  -36.1153  158.5736    6.0575 H   0  0  0  0  0  0  0  0  0  0  0  0
  -37.8115  156.7843    5.6854 H   0  0  0  0  0  0  0  0  0  0  0  0
  -40.3763  148.0096    6.2790 H   0  0  0  0  0  0  0  0  0  0  0  0
  -35.4816  148.3481    3.8541 H   0  0  0  0  0  0  0  0  0  0  0  0
  -33.3793  147.6342    2.8015 H   0  0  0  0  0  0  0  0  0  0  0  0
  -32.1390  145.8990   -1.1530 H   0  0  0  0  0  0  0  0  0  0  0  0
  -34.3707  144.8627   -1.8341 H   0  0  0  0  0  0  0  0  0  0  0  0
  -34.3631  146.1934   -3.0406 H   0  0  0  0  0  0  0  0  0  0  0  0
  -33.0446  144.9736   -3.0406 H   0  0  0  0  0  0  0  0  0  0  0  0
  -35.5320  146.9053   -1.5454 H   0  0  0  0  0  0  0  0  0  0  0  0
  1  2  1  0
  2  3  1  0
  3  4  1  0
  4  5  2  0
  4  6  1  0
  6  7  1  0
  7  8  1  0
  8  9  2  0
  9 10  1  0
 10 11  1  0
 11 12  2  0
 11 13  1  0
 13 14  1  0
 14 15  2  0
 15 16  1  0
 16 17  2  0
 17 18  1  0
 18 19  2  0
  9 20  1  0
 20 21  1  0
 20 22  2  0
 22 23  1  0
 23 24  1  0
  6 25  2  0
 25 26  1  0
 26 27  2  0
 27 28  1  0
 28 29  2  0
 29 30  1  0
 30 31  1  0
 29 32  1  0
 32 33  2  0
 33  3  1  0
 23  7  2  0
 33 26  1  0
 19 14  1  0
  1 34  1  0
  1 35  1  0
  1 36  1  0
  2 37  1  0
  2 38  1  0
  8 39  1  0
 10 40  1  0
 13 41  1  0
 15 42  1  0
 16 43  1  0
 17 44  1  0
 18 45  1  0
 19 46  1  0
 22 47  1  0
 25 48  1  0
 27 49  1  0
 30 50  1  0
 31 51  1  0
 31 52  1  0
 31 53  1  0
 32 54  1  0
M  END
>  <meeko>  (10) 
{"is_sidechain": false}

>  <vina_affinity_kcal_mol>  (10) 
-8.09

>  <pose_rank>  (10) 
10

$$$$
