
     RDKit          3D

 64 69  0  0  0  0  0  0  0  0999 V2000
   -3.9840   -7.9500  -18.5260 C   0  0  0  0  0  0  0  0  0  0  0  0
   -4.4950   -7.1510  -17.4390 N   0  0  0  0  0  0  0  0  0  0  0  0
   -3.9100   -6.0490  -16.8840 C   0  0  0  0  0  0  0  0  0  0  0  0
   -4.7620   -5.6330  -15.8860 C   0  0  0  0  0  0  0  0  0  0  0  0
   -4.6250   -4.5060  -14.9770 C   0  0  0  0  0  0  0  0  0  0  0  0
   -5.0030   -3.1700  -15.2690 C   0  0  0  0  0  0  0  0  0  0  0  0
   -4.7280   -2.4060  -14.1480 C   0  0  0  0  0  0  0  0  0  0  0  0
   -4.8730   -1.0140  -13.8160 C   0  0  0  0  0  0  0  0  0  0  0  0
   -5.4790   -0.0610  -14.6260 N   0  0  0  0  0  0  0  0  0  0  0  0
   -5.3040    1.3720  -14.3220 C   0  0  0  0  0  0  0  0  0  0  0  0
   -5.6880    2.2740  -15.5120 C   0  0  0  0  0  0  0  0  0  0  0  0
   -7.0490    2.0010  -15.9820 N   0  0  0  0  0  0  0  0  0  0  0  0
   -7.8810    3.0660  -16.2550 C   0  0  0  0  0  0  0  0  0  0  0  0
   -7.4440    4.0370  -17.0690 N   0  0  0  0  0  0  0  0  0  0  0  0
   -8.2630    5.0840  -17.3010 C   0  0  0  0  0  0  0  0  0  0  0  0
   -9.5250    5.2290  -16.7570 C   0  0  0  0  0  0  0  0  0  0  0  0
  -10.4020    6.4370  -17.0690 C   0  0  1  0  0  0  0  0  0  0  0  0
  -11.8680    6.0020  -16.8200 C   0  0  0  0  0  0  0  0  0  0  0  0
  -10.1880    7.5690  -16.1500 N   0  0  0  0  0  0  0  0  0  0  0  0
  -10.1430    6.9660  -18.4970 C   0  0  0  0  0  0  0  0  0  0  0  0
  -10.5270    6.2590  -19.6540 C   0  0  0  0  0  0  0  0  0  0  0  0
  -10.2810    6.7750  -20.9300 C   0  0  0  0  0  0  0  0  0  0  0  0
   -9.6580    8.0060  -21.0690 C   0  0  0  0  0  0  0  0  0  0  0  0
   -9.4250    8.4960  -22.2930 F   0  0  0  0  0  0  0  0  0  0  0  0
   -9.2770    8.7380  -19.9540 C   0  0  0  0  0  0  0  0  0  0  0  0
   -9.5220    8.2250  -18.6780 C   0  0  0  0  0  0  0  0  0  0  0  0
   -9.8780    4.1790  -15.9380 C   0  0  0  0  0  0  0  0  0  0  0  0
   -9.0900    3.1130  -15.6770 N   0  0  0  0  0  0  0  0  0  0  0  0
   -7.6680    0.7430  -15.5690 C   0  0  0  0  0  0  0  0  0  0  0  0
   -6.6190   -0.3870  -15.5010 C   0  0  0  0  0  0  0  0  0  0  0  0
   -4.3830   -0.6370  -12.6670 N   0  0  0  0  0  0  0  0  0  0  0  0
   -3.8120   -1.5570  -11.8260 C   0  0  0  0  0  0  0  0  0  0  0  0
   -3.6800   -2.8280  -12.0330 N   0  0  0  0  0  0  0  0  0  0  0  0
   -4.1500   -3.2260  -13.2230 N   0  0  0  0  0  0  0  0  0  0  0  0
   -4.1090   -4.5080  -13.7000 C   0  0  0  0  0  0  0  0  0  0  0  0
   -5.8310   -6.5500  -15.9230 C   0  0  0  0  0  0  0  0  0  0  0  0
   -5.6710   -7.4790  -16.8730 N   0  0  0  0  0  0  0  0  0  0  0  0
   -3.4331   -8.8114  -18.1204 H   0  0  0  0  0  0  0  0  0  0  0  0
   -4.8213   -8.3078  -19.1432 H   0  0  0  0  0  0  0  0  0  0  0  0
   -3.3080   -7.3400  -19.1432 H   0  0  0  0  0  0  0  0  0  0  0  0
   -2.9543   -5.5884  -17.1747 H   0  0  0  0  0  0  0  0  0  0  0  0
   -5.4354   -2.8077  -16.2133 H   0  0  0  0  0  0  0  0  0  0  0  0
   -5.9392    1.6313  -13.4622 H   0  0  0  0  0  0  0  0  0  0  0  0
   -4.2398    1.5415  -14.1010 H   0  0  0  0  0  0  0  0  0  0  0  0
   -5.6239    3.3260  -15.1971 H   0  0  0  0  0  0  0  0  0  0  0  0
   -4.9919    2.0667  -16.3381 H   0  0  0  0  0  0  0  0  0  0  0  0
   -7.9005    5.8781  -17.9704 H   0  0  0  0  0  0  0  0  0  0  0  0
  -12.0552    5.9465  -15.7375 H   0  0  0  0  0  0  0  0  0  0  0  0
  -12.5503    6.7364  -17.2729 H   0  0  0  0  0  0  0  0  0  0  0  0
  -12.0394    5.0143  -17.2729 H   0  0  0  0  0  0  0  0  0  0  0  0
  -10.7170    7.4350  -15.2930 H   0  0  0  0  0  0  0  0  0  0  0  0
  -10.4760    8.4450  -16.5770 H   0  0  0  0  0  0  0  0  0  0  0  0
  -11.0284    5.2853  -19.5516 H   0  0  0  0  0  0  0  0  0  0  0  0
  -10.5811    6.2055  -21.8220 H   0  0  0  0  0  0  0  0  0  0  0  0
   -8.7857    9.7149  -20.0737 H   0  0  0  0  0  0  0  0  0  0  0  0
   -9.2262    8.8116  -17.7957 H   0  0  0  0  0  0  0  0  0  0  0  0
  -10.8700    4.2107  -15.4638 H   0  0  0  0  0  0  0  0  0  0  0  0
   -8.1224    0.8736  -14.5758 H   0  0  0  0  0  0  0  0  0  0  0  0
   -8.4353    0.4681  -16.3077 H   0  0  0  0  0  0  0  0  0  0  0  0
   -7.1066   -1.2956  -15.1179 H   0  0  0  0  0  0  0  0  0  0  0  0
   -6.2236   -0.5312  -16.5173 H   0  0  0  0  0  0  0  0  0  0  0  0
   -3.4236   -1.1732  -10.8711 H   0  0  0  0  0  0  0  0  0  0  0  0
   -3.7300   -5.3869  -13.1580 H   0  0  0  0  0  0  0  0  0  0  0  0
   -6.6984   -6.5072  -15.2479 H   0  0  0  0  0  0  0  0  0  0  0  0
  1  2  1  0
  2  3  1  0
  3  4  2  0
  4  5  1  0
  5  6  1  0
  6  7  2  0
  7  8  1  0
  8  9  1  0
  9 10  1  0
 10 11  1  0
 11 12  1  0
 12 13  1  0
 13 14  2  0
 14 15  1  0
 15 16  2  0
 16 17  1  0
 17 18  1  0
 17 19  1  1
 17 20  1  0
 20 21  1  0
 21 22  2  0
 22 23  1  0
 23 24  1  0
 23 25  2  0
 25 26  1  0
 16 27  1  0
 27 28  2  0
 12 29  1  0
 29 30  1  0
  8 31  2  0
 31 32  1  0
 32 33  2  0
 33 34  1  0
 34 35  1  0
  4 36  1  0
 36 37  2  0
 37  2  1  0
 35  5  2  0
 34  7  1  0
 30  9  1  0
 28 13  1  0
 26 20  2  0
  1 38  1  0
  1 39  1  0
  1 40  1  0
  3 41  1  0
  6 42  1  0
 10 43  1  0
 10 44  1  0
 11 45  1  0
 11 46  1  0
 15 47  1  0
 18 48  1  0
 18 49  1  0
 18 50  1  0
 19 51  1  0
 19 52  1  0
 21 53  1  0
 22 54  1  0
 25 55  1  0
 26 56  1  0
 27 57  1  0
 29 58  1  0
 29 59  1  0
 30 60  1  0
 30 61  1  0
 32 62  1  0
 35 63  1  0
 36 64  1  0
M  END
>  <meeko>  (1) 
{"is_sidechain": false}

>  <vina_affinity_kcal_mol>  (1) 
-9.865

>  <pose_rank>  (1) 
1

$$$$

     RDKit          3D

 64 69  0  0  0  0  0  0  0  0999 V2000
   -8.8190    9.9290  -19.9150 C   0  0  0  0  0  0  0  0  0  0  0  0
   -9.3700    8.6730  -19.4670 N   0  0  0  0  0  0  0  0  0  0  0  0
   -9.3750    8.1870  -18.1910 C   0  0  0  0  0  0  0  0  0  0  0  0
  -10.0030    6.9640  -18.2570 C   0  0  0  0  0  0  0  0  0  0  0  0
  -10.2770    6.0170  -17.1880 C   0  0  0  0  0  0  0  0  0  0  0  0
   -9.6810    4.7350  -17.0580 C   0  0  0  0  0  0  0  0  0  0  0  0
  -10.1900    4.1550  -15.9110 C   0  0  0  0  0  0  0  0  0  0  0  0
   -9.9940    2.8940  -15.2460 C   0  0  0  0  0  0  0  0  0  0  0  0
   -9.0700    1.9280  -15.6270 N   0  0  0  0  0  0  0  0  0  0  0  0
   -9.1650    0.5670  -15.0650 C   0  0  0  0  0  0  0  0  0  0  0  0
   -8.3430   -0.4580  -15.8740 C   0  0  0  0  0  0  0  0  0  0  0  0
   -6.9440   -0.0440  -16.0100 N   0  0  0  0  0  0  0  0  0  0  0  0
   -5.9540   -0.9810  -15.8020 C   0  0  0  0  0  0  0  0  0  0  0  0
   -4.9940   -1.1240  -16.7260 N   0  0  0  0  0  0  0  0  0  0  0  0
   -4.0510   -2.0660  -16.5150 C   0  0  0  0  0  0  0  0  0  0  0  0
   -4.0020   -2.8980  -15.4130 C   0  0  0  0  0  0  0  0  0  0  0  0
   -2.9010   -3.9370  -15.2360 C   0  0  1  0  0  0  0  0  0  0  0  0
   -1.5530   -3.1920  -15.4060 C   0  0  0  0  0  0  0  0  0  0  0  0
   -2.8440   -4.5060  -13.8790 N   0  0  0  0  0  0  0  0  0  0  0  0
   -3.0850   -5.1220  -16.2110 C   0  0  0  0  0  0  0  0  0  0  0  0
   -4.2290   -5.9440  -16.2050 C   0  0  0  0  0  0  0  0  0  0  0  0
   -4.3610   -7.0030  -17.1090 C   0  0  0  0  0  0  0  0  0  0  0  0
   -3.3570   -7.2500  -18.0340 C   0  0  0  0  0  0  0  0  0  0  0  0
   -3.4880   -8.2650  -18.8970 F   0  0  0  0  0  0  0  0  0  0  0  0
   -2.2220   -6.4550  -18.0790 C   0  0  0  0  0  0  0  0  0  0  0  0
   -2.0890   -5.3960  -17.1780 C   0  0  0  0  0  0  0  0  0  0  0  0
   -5.0310   -2.6680  -14.5260 C   0  0  0  0  0  0  0  0  0  0  0  0
   -5.9960   -1.7390  -14.6960 N   0  0  0  0  0  0  0  0  0  0  0  0
   -6.6230    1.3560  -15.7410 C   0  0  0  0  0  0  0  0  0  0  0  0
   -7.7650    2.2810  -16.2140 C   0  0  0  0  0  0  0  0  0  0  0  0
  -10.7590    2.6550  -14.2160 N   0  0  0  0  0  0  0  0  0  0  0  0
  -11.6550    3.6010  -13.7900 C   0  0  0  0  0  0  0  0  0  0  0  0
  -11.8620    4.7700  -14.3060 N   0  0  0  0  0  0  0  0  0  0  0  0
  -11.1060    5.0180  -15.3840 N   0  0  0  0  0  0  0  0  0  0  0  0
  -11.1470    6.1640  -16.1310 C   0  0  0  0  0  0  0  0  0  0  0  0
  -10.3410    6.8090  -19.6160 C   0  0  0  0  0  0  0  0  0  0  0  0
   -9.9560    7.8530  -20.3590 N   0  0  0  0  0  0  0  0  0  0  0  0
   -8.5496   10.5431  -19.0430 H   0  0  0  0  0  0  0  0  0  0  0  0
   -7.9212    9.7399  -20.5218 H   0  0  0  0  0  0  0  0  0  0  0  0
   -9.5661   10.4616  -20.5218 H   0  0  0  0  0  0  0  0  0  0  0  0
   -8.9621    8.6729  -17.2947 H   0  0  0  0  0  0  0  0  0  0  0  0
   -8.9483    4.2855  -17.7444 H   0  0  0  0  0  0  0  0  0  0  0  0
   -8.7904    0.5841  -14.0309 H   0  0  0  0  0  0  0  0  0  0  0  0
  -10.2203    0.2591  -15.1043 H   0  0  0  0  0  0  0  0  0  0  0  0
   -8.3789   -1.4296  -15.3595 H   0  0  0  0  0  0  0  0  0  0  0  0
   -8.7792   -0.5292  -16.8813 H   0  0  0  0  0  0  0  0  0  0  0  0
   -3.2644   -2.1797  -17.2754 H   0  0  0  0  0  0  0  0  0  0  0  0
   -1.1344   -2.9607  -14.4154 H   0  0  0  0  0  0  0  0  0  0  0  0
   -0.8494   -3.8293  -15.9616 H   0  0  0  0  0  0  0  0  0  0  0  0
   -1.7183   -2.2571  -15.9616 H   0  0  0  0  0  0  0  0  0  0  0  0
   -1.8990   -4.4480  -13.5090 H   0  0  0  0  0  0  0  0  0  0  0  0
   -3.1340   -5.4800  -13.8780 H   0  0  0  0  0  0  0  0  0  0  0  0
   -5.0312   -5.7499  -15.4778 H   0  0  0  0  0  0  0  0  0  0  0  0
   -5.2586   -7.6384  -17.0866 H   0  0  0  0  0  0  0  0  0  0  0  0
   -1.4327   -6.6566  -18.8182 H   0  0  0  0  0  0  0  0  0  0  0  0
   -1.1913   -4.7618  -17.2211 H   0  0  0  0  0  0  0  0  0  0  0  0
   -5.0690   -3.2843  -13.6157 H   0  0  0  0  0  0  0  0  0  0  0  0
   -6.4745    1.4905  -14.6594 H   0  0  0  0  0  0  0  0  0  0  0  0
   -5.7063    1.6191  -16.2890 H   0  0  0  0  0  0  0  0  0  0  0  0
   -7.5201    3.3148  -15.9289 H   0  0  0  0  0  0  0  0  0  0  0  0
   -7.8520    2.1665  -17.3046 H   0  0  0  0  0  0  0  0  0  0  0  0
  -12.2651    3.3378  -12.9134 H   0  0  0  0  0  0  0  0  0  0  0  0
  -11.7670    7.0485  -15.9231 H   0  0  0  0  0  0  0  0  0  0  0  0
  -10.8625    5.9290  -20.0205 H   0  0  0  0  0  0  0  0  0  0  0  0
  1  2  1  0
  2  3  1  0
  3  4  2  0
  4  5  1  0
  5  6  1  0
  6  7  2  0
  7  8  1  0
  8  9  1  0
  9 10  1  0
 10 11  1  0
 11 12  1  0
 12 13  1  0
 13 14  2  0
 14 15  1  0
 15 16  2  0
 16 17  1  0
 17 18  1  0
 17 19  1  1
 17 20  1  0
 20 21  1  0
 21 22  2  0
 22 23  1  0
 23 24  1  0
 23 25  2  0
 25 26  1  0
 16 27  1  0
 27 28  2  0
 12 29  1  0
 29 30  1  0
  8 31  2  0
 31 32  1  0
 32 33  2  0
 33 34  1  0
 34 35  1  0
  4 36  1  0
 36 37  2  0
 37  2  1  0
 35  5  2  0
 34  7  1  0
 30  9  1  0
 28 13  1  0
 26 20  2  0
  1 38  1  0
  1 39  1  0
  1 40  1  0
  3 41  1  0
  6 42  1  0
 10 43  1  0
 10 44  1  0
 11 45  1  0
 11 46  1  0
 15 47  1  0
 18 48  1  0
 18 49  1  0
 18 50  1  0
 19 51  1  0
 19 52  1  0
 21 53  1  0
 22 54  1  0
 25 55  1  0
 26 56  1  0
 27 57  1  0
 29 58  1  0
 29 59  1  0
 30 60  1  0
 30 61  1  0
 32 62  1  0
 35 63  1  0
 36 64  1  0
M  END
>  <meeko>  (2) 
{"is_sidechain": false}

>  <vina_affinity_kcal_mol>  (2) 
-9.762

>  <pose_rank>  (2) 
2

$$$$

     RDKit          3D

 64 69  0  0  0  0  0  0  0  0999 V2000
   -9.4900    8.4150  -18.9430 C   0  0  0  0  0  0  0  0  0  0  0  0
   -9.3530    7.1910  -18.1920 N   0  0  0  0  0  0  0  0  0  0  0  0
   -8.5040    6.1550  -18.4580 C   0  0  0  0  0  0  0  0  0  0  0  0
   -8.7340    5.2180  -17.4770 C   0  0  0  0  0  0  0  0  0  0  0  0
   -8.1040    3.9220  -17.2840 C   0  0  0  0  0  0  0  0  0  0  0  0
   -8.3560    3.0440  -16.1970 C   0  0  0  0  0  0  0  0  0  0  0  0
   -7.5760    1.9170  -16.3840 C   0  0  0  0  0  0  0  0  0  0  0  0
   -7.3770    0.6960  -15.6510 C   0  0  0  0  0  0  0  0  0  0  0  0
   -8.0870    0.3240  -14.5160 N   0  0  0  0  0  0  0  0  0  0  0  0
   -7.5980   -0.7920  -13.6830 C   0  0  0  0  0  0  0  0  0  0  0  0
   -8.2520   -0.8110  -12.2860 C   0  0  0  0  0  0  0  0  0  0  0  0
   -9.7150   -0.8240  -12.3740 N   0  0  0  0  0  0  0  0  0  0  0  0
  -10.4180   -1.6920  -11.5650 C   0  0  0  0  0  0  0  0  0  0  0  0
  -11.0960   -2.7010  -12.1310 N   0  0  0  0  0  0  0  0  0  0  0  0
  -11.7990   -3.5210  -11.3220 C   0  0  0  0  0  0  0  0  0  0  0  0
  -11.8720   -3.3960   -9.9480 C   0  0  0  0  0  0  0  0  0  0  0  0
  -12.6830   -4.3660   -9.0940 C   0  0  1  0  0  0  0  0  0  0  0  0
  -12.8670   -5.6540   -9.9360 C   0  0  0  0  0  0  0  0  0  0  0  0
  -11.9750   -4.8110   -7.8820 N   0  0  0  0  0  0  0  0  0  0  0  0
  -14.0120   -3.7300   -8.6290 C   0  0  0  0  0  0  0  0  0  0  0  0
  -14.7410   -2.8210   -9.4210 C   0  0  0  0  0  0  0  0  0  0  0  0
  -15.9440   -2.2730   -8.9670 C   0  0  0  0  0  0  0  0  0  0  0  0
  -16.4400   -2.6310   -7.7220 C   0  0  0  0  0  0  0  0  0  0  0  0
  -17.5930   -2.1030   -7.2920 F   0  0  0  0  0  0  0  0  0  0  0  0
  -15.7580   -3.5330   -6.9200 C   0  0  0  0  0  0  0  0  0  0  0  0
  -14.5560   -4.0830   -7.3720 C   0  0  0  0  0  0  0  0  0  0  0  0
  -11.1420   -2.3320   -9.4680 C   0  0  0  0  0  0  0  0  0  0  0  0
  -10.4250   -1.4850  -10.2400 N   0  0  0  0  0  0  0  0  0  0  0  0
  -10.3210   -0.4390  -13.6470 C   0  0  0  0  0  0  0  0  0  0  0  0
   -9.5050    0.6800  -14.3260 C   0  0  0  0  0  0  0  0  0  0  0  0
   -6.4480   -0.1040  -16.0960 N   0  0  0  0  0  0  0  0  0  0  0  0
   -5.7530    0.2130  -17.2350 C   0  0  0  0  0  0  0  0  0  0  0  0
   -5.9000    1.2680  -17.9710 N   0  0  0  0  0  0  0  0  0  0  0  0
   -6.8290    2.1150  -17.5090 N   0  0  0  0  0  0  0  0  0  0  0  0
   -7.1610    3.3130  -18.0810 C   0  0  0  0  0  0  0  0  0  0  0  0
   -9.7380    5.7870  -16.6680 C   0  0  0  0  0  0  0  0  0  0  0  0
  -10.1180    6.9950  -17.1020 N   0  0  0  0  0  0  0  0  0  0  0  0
   -9.5849    9.2627  -18.2484 H   0  0  0  0  0  0  0  0  0  0  0  0
   -8.6022    8.5577  -19.5766 H   0  0  0  0  0  0  0  0  0  0  0  0
  -10.3874    8.3579  -19.5766 H   0  0  0  0  0  0  0  0  0  0  0  0
   -7.7840    6.0841  -19.2866 H   0  0  0  0  0  0  0  0  0  0  0  0
   -9.0453    3.2266  -15.3594 H   0  0  0  0  0  0  0  0  0  0  0  0
   -7.8254   -1.7398  -14.1928 H   0  0  0  0  0  0  0  0  0  0  0  0
   -6.5147   -0.6593  -13.5453 H   0  0  0  0  0  0  0  0  0  0  0  0
   -7.9189   -1.7110  -11.7484 H   0  0  0  0  0  0  0  0  0  0  0  0
   -7.9481    0.1014  -11.7520 H   0  0  0  0  0  0  0  0  0  0  0  0
  -12.3534   -4.3479  -11.7899 H   0  0  0  0  0  0  0  0  0  0  0  0
  -12.9902   -6.5165   -9.2645 H   0  0  0  0  0  0  0  0  0  0  0  0
  -13.7598   -5.5528  -10.5706 H   0  0  0  0  0  0  0  0  0  0  0  0
  -11.9816   -5.8069  -10.5706 H   0  0  0  0  0  0  0  0  0  0  0  0
  -12.0560   -5.8180   -7.7720 H   0  0  0  0  0  0  0  0  0  0  0  0
  -12.3540   -4.3620   -7.0520 H   0  0  0  0  0  0  0  0  0  0  0  0
  -14.3573   -2.5381  -10.4123 H   0  0  0  0  0  0  0  0  0  0  0  0
  -16.4964   -1.5592   -9.5958 H   0  0  0  0  0  0  0  0  0  0  0  0
  -16.1602   -3.8135   -5.9353 H   0  0  0  0  0  0  0  0  0  0  0  0
  -14.0217   -4.8053   -6.7374 H   0  0  0  0  0  0  0  0  0  0  0  0
  -11.1422   -2.1592   -8.3817 H   0  0  0  0  0  0  0  0  0  0  0  0
  -10.3530   -1.3155  -14.3108 H   0  0  0  0  0  0  0  0  0  0  0  0
  -11.3381   -0.0667  -13.4549 H   0  0  0  0  0  0  0  0  0  0  0  0
   -9.9488    0.8896  -15.3104 H   0  0  0  0  0  0  0  0  0  0  0  0
   -9.5382    1.5589  -13.6654 H   0  0  0  0  0  0  0  0  0  0  0  0
   -4.9873   -0.5075  -17.5585 H   0  0  0  0  0  0  0  0  0  0  0  0
   -6.7463    3.7190  -19.0155 H   0  0  0  0  0  0  0  0  0  0  0  0
  -10.1615    5.2942  -15.7804 H   0  0  0  0  0  0  0  0  0  0  0  0
  1  2  1  0
  2  3  1  0
  3  4  2  0
  4  5  1  0
  5  6  1  0
  6  7  2  0
  7  8  1  0
  8  9  1  0
  9 10  1  0
 10 11  1  0
 11 12  1  0
 12 13  1  0
 13 14  2  0
 14 15  1  0
 15 16  2  0
 16 17  1  0
 17 18  1  0
 17 19  1  1
 17 20  1  0
 20 21  1  0
 21 22  2  0
 22 23  1  0
 23 24  1  0
 23 25  2  0
 25 26  1  0
 16 27  1  0
 27 28  2  0
 12 29  1  0
 29 30  1  0
  8 31  2  0
 31 32  1  0
 32 33  2  0
 33 34  1  0
 34 35  1  0
  4 36  1  0
 36 37  2  0
 37  2  1  0
 35  5  2  0
 34  7  1  0
 30  9  1  0
 28 13  1  0
 26 20  2  0
  1 38  1  0
  1 39  1  0
  1 40  1  0
  3 41  1  0
  6 42  1  0
 10 43  1  0
 10 44  1  0
 11 45  1  0
 11 46  1  0
 15 47  1  0
 18 48  1  0
 18 49  1  0
 18 50  1  0
 19 51  1  0
 19 52  1  0
 21 53  1  0
 22 54  1  0
 25 55  1  0
 26 56  1  0
 27 57  1  0
 29 58  1  0
 29 59  1  0
 30 60  1  0
 30 61  1  0
 32 62  1  0
 35 63  1  0
 36 64  1  0
M  END
>  <meeko>  (3) 
{"is_sidechain": false}

>  <vina_affinity_kcal_mol>  (3) 
-9.44

>  <pose_rank>  (3) 
3

$$$$

     RDKit          3D

 64 69  0  0  0  0  0  0  0  0999 V2000
  -15.6600   -0.6420   -7.3090 C   0  0  0  0  0  0  0  0  0  0  0  0
  -14.7460   -0.3810   -8.3940 N   0  0  0  0  0  0  0  0  0  0  0  0
  -14.7380    0.7080   -9.2180 C   0  0  0  0  0  0  0  0  0  0  0  0
  -13.6930    0.5110  -10.0920 C   0  0  0  0  0  0  0  0  0  0  0  0
  -13.2360    1.3620  -11.1790 C   0  0  0  0  0  0  0  0  0  0  0  0
  -11.9180    1.3810  -11.7040 C   0  0  0  0  0  0  0  0  0  0  0  0
  -11.8930    2.3090  -12.7300 C   0  0  0  0  0  0  0  0  0  0  0  0
  -10.8800    2.7860  -13.6330 C   0  0  0  0  0  0  0  0  0  0  0  0
   -9.5890    2.2800  -13.7210 N   0  0  0  0  0  0  0  0  0  0  0  0
   -8.5580    3.0350  -14.4590 C   0  0  0  0  0  0  0  0  0  0  0  0
   -7.1300    2.5540  -14.1260 C   0  0  0  0  0  0  0  0  0  0  0  0
   -6.9800    1.1130  -14.3450 N   0  0  0  0  0  0  0  0  0  0  0  0
   -5.8560    0.6580  -15.0010 C   0  0  0  0  0  0  0  0  0  0  0  0
   -5.5450   -0.6440  -14.9260 N   0  0  0  0  0  0  0  0  0  0  0  0
   -4.4250   -1.0630  -15.5520 C   0  0  0  0  0  0  0  0  0  0  0  0
   -3.5720   -0.2440  -16.2670 C   0  0  0  0  0  0  0  0  0  0  0  0
   -2.3250   -0.7880  -16.9570 C   0  0  1  0  0  0  0  0  0  0  0  0
   -1.1700   -0.6960  -15.9280 C   0  0  0  0  0  0  0  0  0  0  0  0
   -2.4160   -2.2210  -17.2880 N   0  0  0  0  0  0  0  0  0  0  0  0
   -2.0420   -0.0410  -18.2790 C   0  0  0  0  0  0  0  0  0  0  0  0
   -0.9150    0.7840  -18.4630 C   0  0  0  0  0  0  0  0  0  0  0  0
   -0.6910    1.4380  -19.6780 C   0  0  0  0  0  0  0  0  0  0  0  0
   -1.5830    1.2720  -20.7270 C   0  0  0  0  0  0  0  0  0  0  0  0
   -1.3630    1.9000  -21.8890 F   0  0  0  0  0  0  0  0  0  0  0  0
   -2.6970    0.4580  -20.5880 C   0  0  0  0  0  0  0  0  0  0  0  0
   -2.9230   -0.1980  -19.3760 C   0  0  0  0  0  0  0  0  0  0  0  0
   -3.9820    1.0710  -16.2840 C   0  0  0  0  0  0  0  0  0  0  0  0
   -5.0920    1.5340  -15.6700 N   0  0  0  0  0  0  0  0  0  0  0  0
   -8.1990    0.3130  -14.4470 C   0  0  0  0  0  0  0  0  0  0  0  0
   -9.2900    0.8530  -13.5000 C   0  0  0  0  0  0  0  0  0  0  0  0
  -11.2160    3.7780  -14.4110 N   0  0  0  0  0  0  0  0  0  0  0  0
  -12.4920    4.2780  -14.3770 C   0  0  0  0  0  0  0  0  0  0  0  0
  -13.4680    3.8790  -13.6250 N   0  0  0  0  0  0  0  0  0  0  0  0
  -13.1290    2.8820  -12.7980 N   0  0  0  0  0  0  0  0  0  0  0  0
  -13.9630    2.2960  -11.8830 C   0  0  0  0  0  0  0  0  0  0  0  0
  -13.1350   -0.7250   -9.7090 C   0  0  0  0  0  0  0  0  0  0  0  0
  -13.7760   -1.2730   -8.6700 N   0  0  0  0  0  0  0  0  0  0  0  0
  -15.1422   -0.4941   -6.3498 H   0  0  0  0  0  0  0  0  0  0  0  0
  -16.5140    0.0482   -7.3749 H   0  0  0  0  0  0  0  0  0  0  0  0
  -16.0208   -1.6791   -7.3749 H   0  0  0  0  0  0  0  0  0  0  0  0
  -15.4254    1.5663   -9.1892 H   0  0  0  0  0  0  0  0  0  0  0  0
  -11.0711    0.7699  -11.3586 H   0  0  0  0  0  0  0  0  0  0  0  0
   -8.7313    2.9087  -15.5379 H   0  0  0  0  0  0  0  0  0  0  0  0
   -8.6358    4.0909  -14.1608 H   0  0  0  0  0  0  0  0  0  0  0  0
   -6.4146    3.0888  -14.7681 H   0  0  0  0  0  0  0  0  0  0  0  0
   -6.9366    2.7619  -13.0633 H   0  0  0  0  0  0  0  0  0  0  0  0
   -4.1735   -2.1320  -15.4885 H   0  0  0  0  0  0  0  0  0  0  0  0
   -1.5832   -0.7289  -14.9091 H   0  0  0  0  0  0  0  0  0  0  0  0
   -0.4821   -1.5422  -16.0722 H   0  0  0  0  0  0  0  0  0  0  0  0
   -0.6248    0.2484  -16.0722 H   0  0  0  0  0  0  0  0  0  0  0  0
   -1.4880   -2.6210  -17.3940 H   0  0  0  0  0  0  0  0  0  0  0  0
   -2.9340   -2.3640  -18.1500 H   0  0  0  0  0  0  0  0  0  0  0  0
   -0.2000    0.9156  -17.6375 H   0  0  0  0  0  0  0  0  0  0  0  0
    0.1912    2.0832  -19.8019 H   0  0  0  0  0  0  0  0  0  0  0  0
   -3.3976    0.3299  -21.4263 H   0  0  0  0  0  0  0  0  0  0  0  0
   -3.8030   -0.8496  -19.2717 H   0  0  0  0  0  0  0  0  0  0  0  0
   -3.3626    1.7935  -16.8356 H   0  0  0  0  0  0  0  0  0  0  0  0
   -8.5693    0.3505  -15.4821 H   0  0  0  0  0  0  0  0  0  0  0  0
   -7.9654   -0.7231  -14.1609 H   0  0  0  0  0  0  0  0  0  0  0  0
  -10.2110    0.2730  -13.6592 H   0  0  0  0  0  0  0  0  0  0  0  0
   -8.9135    0.7508  -12.4715 H   0  0  0  0  0  0  0  0  0  0  0  0
  -12.7108    5.1091  -15.0636 H   0  0  0  0  0  0  0  0  0  0  0  0
  -15.0276    2.5305  -11.7361 H   0  0  0  0  0  0  0  0  0  0  0  0
  -12.2703   -1.1871  -10.2077 H   0  0  0  0  0  0  0  0  0  0  0  0
  1  2  1  0
  2  3  1  0
  3  4  2  0
  4  5  1  0
  5  6  1  0
  6  7  2  0
  7  8  1  0
  8  9  1  0
  9 10  1  0
 10 11  1  0
 11 12  1  0
 12 13  1  0
 13 14  2  0
 14 15  1  0
 15 16  2  0
 16 17  1  0
 17 18  1  0
 17 19  1  6
 17 20  1  0
 20 21  1  0
 21 22  2  0
 22 23  1  0
 23 24  1  0
 23 25  2  0
 25 26  1  0
 16 27  1  0
 27 28  2  0
 12 29  1  0
 29 30  1  0
  8 31  2  0
 31 32  1  0
 32 33  2  0
 33 34  1  0
 34 35  1  0
  4 36  1  0
 36 37  2  0
 37  2  1  0
 35  5  2  0
 34  7  1  0
 30  9  1  0
 28 13  1  0
 26 20  2  0
  1 38  1  0
  1 39  1  0
  1 40  1  0
  3 41  1  0
  6 42  1  0
 10 43  1  0
 10 44  1  0
 11 45  1  0
 11 46  1  0
 15 47  1  0
 18 48  1  0
 18 49  1  0
 18 50  1  0
 19 51  1  0
 19 52  1  0
 21 53  1  0
 22 54  1  0
 25 55  1  0
 26 56  1  0
 27 57  1  0
 29 58  1  0
 29 59  1  0
 30 60  1  0
 30 61  1  0
 32 62  1  0
 35 63  1  0
 36 64  1  0
M  END
>  <meeko>  (4) 
{"is_sidechain": false}

>  <vina_affinity_kcal_mol>  (4) 
-9.363

>  <pose_rank>  (4) 
4

$$$$

     RDKit          3D

 64 69  0  0  0  0  0  0  0  0999 V2000
   -9.3190    9.1510  -19.4430 C   0  0  0  0  0  0  0  0  0  0  0  0
   -9.1800    7.9710  -18.6240 N   0  0  0  0  0  0  0  0  0  0  0  0
   -8.5290    6.8160  -18.9520 C   0  0  0  0  0  0  0  0  0  0  0  0
   -8.6660    5.9850  -17.8640 C   0  0  0  0  0  0  0  0  0  0  0  0
   -8.1670    4.6320  -17.6760 C   0  0  0  0  0  0  0  0  0  0  0  0
   -8.4770    3.7910  -16.5760 C   0  0  0  0  0  0  0  0  0  0  0  0
   -7.8220    2.5890  -16.7740 C   0  0  0  0  0  0  0  0  0  0  0  0
   -7.7280    1.3580  -16.0370 C   0  0  0  0  0  0  0  0  0  0  0  0
   -8.4400    1.0670  -14.8790 N   0  0  0  0  0  0  0  0  0  0  0  0
   -8.0450   -0.0880  -14.0510 C   0  0  0  0  0  0  0  0  0  0  0  0
   -8.6590   -0.0320  -12.6370 C   0  0  0  0  0  0  0  0  0  0  0  0
  -10.1170    0.1040  -12.6840 N   0  0  0  0  0  0  0  0  0  0  0  0
  -10.8820   -0.6830  -11.8490 C   0  0  0  0  0  0  0  0  0  0  0  0
  -11.5750   -0.0960  -10.8630 N   0  0  0  0  0  0  0  0  0  0  0  0
  -12.2950   -0.8880  -10.0400 C   0  0  0  0  0  0  0  0  0  0  0  0
  -12.3690   -2.2640  -10.1400 C   0  0  0  0  0  0  0  0  0  0  0  0
  -13.2090   -3.0970   -9.1780 C   0  0  1  0  0  0  0  0  0  0  0  0
  -13.3150   -2.2860   -7.8610 C   0  0  0  0  0  0  0  0  0  0  0  0
  -14.6030   -3.2730   -9.6190 N   0  0  0  0  0  0  0  0  0  0  0  0
  -12.6160   -4.5110   -8.9920 C   0  0  0  0  0  0  0  0  0  0  0  0
  -13.1060   -5.6400   -9.6770 C   0  0  0  0  0  0  0  0  0  0  0  0
  -12.5370   -6.9030   -9.4870 C   0  0  0  0  0  0  0  0  0  0  0  0
  -11.4670   -7.0540   -8.6170 C   0  0  0  0  0  0  0  0  0  0  0  0
  -10.9250   -8.2660   -8.4380 F   0  0  0  0  0  0  0  0  0  0  0  0
  -10.9490   -5.9640   -7.9340 C   0  0  0  0  0  0  0  0  0  0  0  0
  -11.5150   -4.7010   -8.1240 C   0  0  0  0  0  0  0  0  0  0  0  0
  -11.6230   -2.7650  -11.1840 C   0  0  0  0  0  0  0  0  0  0  0  0
  -10.8880   -2.0110  -12.0300 N   0  0  0  0  0  0  0  0  0  0  0  0
  -10.7160    0.5420  -13.9440 C   0  0  0  0  0  0  0  0  0  0  0  0
   -9.8090    1.5680  -14.6540 C   0  0  0  0  0  0  0  0  0  0  0  0
   -6.8990    0.4640  -16.5010 N   0  0  0  0  0  0  0  0  0  0  0  0
   -6.2080    0.7030  -17.6600 C   0  0  0  0  0  0  0  0  0  0  0  0
   -6.2660    1.7630  -18.4010 N   0  0  0  0  0  0  0  0  0  0  0  0
   -7.0910    2.7030  -17.9210 N   0  0  0  0  0  0  0  0  0  0  0  0
   -7.3140    3.9260  -18.4940 C   0  0  0  0  0  0  0  0  0  0  0  0
   -9.4140    6.7350  -16.9340 C   0  0  0  0  0  0  0  0  0  0  0  0
   -9.7290    7.9510  -17.3960 N   0  0  0  0  0  0  0  0  0  0  0  0
   -9.4232   10.0354  -18.7972 H   0  0  0  0  0  0  0  0  0  0  0  0
   -8.4279    9.2636  -20.0780 H   0  0  0  0  0  0  0  0  0  0  0  0
  -10.2119    9.0535  -20.0780 H   0  0  0  0  0  0  0  0  0  0  0  0
   -8.0032    6.5955  -19.8927 H   0  0  0  0  0  0  0  0  0  0  0  0
   -9.1207    4.0480  -15.7218 H   0  0  0  0  0  0  0  0  0  0  0  0
   -8.3820   -1.0103  -14.5467 H   0  0  0  0  0  0  0  0  0  0  0  0
   -6.9505   -0.0664  -13.9437 H   0  0  0  0  0  0  0  0  0  0  0  0
   -8.4045   -0.9582  -12.1010 H   0  0  0  0  0  0  0  0  0  0  0  0
   -8.2491    0.8482  -12.1200 H   0  0  0  0  0  0  0  0  0  0  0  0
  -12.8631   -0.4032   -9.2324 H   0  0  0  0  0  0  0  0  0  0  0  0
  -13.2259   -2.9678   -7.0024 H   0  0  0  0  0  0  0  0  0  0  0  0
  -12.5066   -1.5410   -7.8231 H   0  0  0  0  0  0  0  0  0  0  0  0
  -14.2877   -1.7738   -7.8231 H   0  0  0  0  0  0  0  0  0  0  0  0
  -15.0620   -3.9930   -9.0680 H   0  0  0  0  0  0  0  0  0  0  0  0
  -14.6450   -3.5370  -10.6000 H   0  0  0  0  0  0  0  0  0  0  0  0
  -13.9502   -5.5262  -10.3729 H   0  0  0  0  0  0  0  0  0  0  0  0
  -12.9367   -7.7746  -10.0260 H   0  0  0  0  0  0  0  0  0  0  0  0
  -10.0989   -6.0928   -7.2479 H   0  0  0  0  0  0  0  0  0  0  0  0
  -11.0961   -3.8367   -7.5878 H   0  0  0  0  0  0  0  0  0  0  0  0
  -11.6261   -3.8540  -11.3394 H   0  0  0  0  0  0  0  0  0  0  0  0
  -10.8557   -0.3303  -14.5994 H   0  0  0  0  0  0  0  0  0  0  0  0
  -11.6842    1.0173  -13.7278 H   0  0  0  0  0  0  0  0  0  0  0  0
  -10.2560    1.8165  -15.6279 H   0  0  0  0  0  0  0  0  0  0  0  0
   -9.7340    2.4495  -14.0003 H   0  0  0  0  0  0  0  0  0  0  0  0
   -5.5291   -0.0938  -17.9981 H   0  0  0  0  0  0  0  0  0  0  0  0
   -6.8862    4.2825  -19.4426 H   0  0  0  0  0  0  0  0  0  0  0  0
   -9.7058    6.3629  -15.9408 H   0  0  0  0  0  0  0  0  0  0  0  0
  1  2  1  0
  2  3  1  0
  3  4  2  0
  4  5  1  0
  5  6  1  0
  6  7  2  0
  7  8  1  0
  8  9  1  0
  9 10  1  0
 10 11  1  0
 11 12  1  0
 12 13  1  0
 13 14  2  0
 14 15  1  0
 15 16  2  0
 16 17  1  0
 17 18  1  0
 17 19  1  6
 17 20  1  0
 20 21  1  0
 21 22  2  0
 22 23  1  0
 23 24  1  0
 23 25  2  0
 25 26  1  0
 16 27  1  0
 27 28  2  0
 12 29  1  0
 29 30  1  0
  8 31  2  0
 31 32  1  0
 32 33  2  0
 33 34  1  0
 34 35  1  0
  4 36  1  0
 36 37  2  0
 37  2  1  0
 35  5  2  0
 34  7  1  0
 30  9  1  0
 28 13  1  0
 26 20  2  0
  1 38  1  0
  1 39  1  0
  1 40  1  0
  3 41  1  0
  6 42  1  0
 10 43  1  0
 10 44  1  0
 11 45  1  0
 11 46  1  0
 15 47  1  0
 18 48  1  0
 18 49  1  0
 18 50  1  0
 19 51  1  0
 19 52  1  0
 21 53  1  0
 22 54  1  0
 25 55  1  0
 26 56  1  0
 27 57  1  0
 29 58  1  0
 29 59  1  0
 30 60  1  0
 30 61  1  0
 32 62  1  0
 35 63  1  0
 36 64  1  0
M  END
>  <meeko>  (5) 
{"is_sidechain": false}

>  <vina_affinity_kcal_mol>  (5) 
-9.055

>  <pose_rank>  (5) 
5

$$$$

     RDKit          3D

 64 69  0  0  0  0  0  0  0  0999 V2000
   -5.4810   -8.0600  -10.9670 C   0  0  0  0  0  0  0  0  0  0  0  0
   -5.3140   -6.7120  -11.4520 N   0  0  0  0  0  0  0  0  0  0  0  0
   -4.6130   -6.3160  -12.5550 C   0  0  0  0  0  0  0  0  0  0  0  0
   -4.7370   -4.9470  -12.6100 C   0  0  0  0  0  0  0  0  0  0  0  0
   -4.1860   -4.0160  -13.5810 C   0  0  0  0  0  0  0  0  0  0  0  0
   -4.9190   -2.9960  -14.2430 C   0  0  0  0  0  0  0  0  0  0  0  0
   -4.0380   -2.3230  -15.0710 C   0  0  0  0  0  0  0  0  0  0  0  0
   -4.1580   -1.2190  -15.9850 C   0  0  0  0  0  0  0  0  0  0  0  0
   -5.3070   -0.4600  -16.1710 N   0  0  0  0  0  0  0  0  0  0  0  0
   -5.4060    0.4400  -17.3370 C   0  0  0  0  0  0  0  0  0  0  0  0
   -6.8570    0.8860  -17.6100 C   0  0  0  0  0  0  0  0  0  0  0  0
   -7.4680    1.4950  -16.4260 N   0  0  0  0  0  0  0  0  0  0  0  0
   -8.1870    2.6620  -16.5780 C   0  0  0  0  0  0  0  0  0  0  0  0
   -7.7140    3.6120  -17.3960 N   0  0  0  0  0  0  0  0  0  0  0  0
   -8.4200    4.7570  -17.5090 C   0  0  0  0  0  0  0  0  0  0  0  0
   -9.5990    5.0220  -16.8400 C   0  0  0  0  0  0  0  0  0  0  0  0
  -10.3490    6.3380  -17.0210 C   0  0  1  0  0  0  0  0  0  0  0  0
  -11.8370    6.0510  -16.7000 C   0  0  0  0  0  0  0  0  0  0  0  0
   -9.9520    7.3760  -16.0550 N   0  0  0  0  0  0  0  0  0  0  0  0
  -10.1190    6.9260  -18.4310 C   0  0  0  0  0  0  0  0  0  0  0  0
  -10.5380    6.2760  -19.6080 C   0  0  0  0  0  0  0  0  0  0  0  0
  -10.3170    6.8450  -20.8660 C   0  0  0  0  0  0  0  0  0  0  0  0
   -9.6830    8.0740  -20.9650 C   0  0  0  0  0  0  0  0  0  0  0  0
   -9.4740    8.6160  -22.1720 F   0  0  0  0  0  0  0  0  0  0  0  0
   -9.2670    8.7520  -19.8290 C   0  0  0  0  0  0  0  0  0  0  0  0
   -9.4880    8.1850  -18.5710 C   0  0  0  0  0  0  0  0  0  0  0  0
   -9.9980    3.9830  -16.0280 C   0  0  0  0  0  0  0  0  0  0  0  0
   -9.3230    2.8220  -15.8840 N   0  0  0  0  0  0  0  0  0  0  0  0
   -6.8280    1.2540  -15.1340 C   0  0  0  0  0  0  0  0  0  0  0  0
   -6.2430   -0.1720  -15.0690 C   0  0  0  0  0  0  0  0  0  0  0  0
   -3.0990   -0.9330  -16.6920 N   0  0  0  0  0  0  0  0  0  0  0  0
   -1.9370   -1.6360  -16.5070 C   0  0  0  0  0  0  0  0  0  0  0  0
   -1.7380   -2.6120  -15.6800 N   0  0  0  0  0  0  0  0  0  0  0  0
   -2.8250   -2.9380  -14.9690 N   0  0  0  0  0  0  0  0  0  0  0  0
   -2.8930   -3.9480  -14.0470 C   0  0  0  0  0  0  0  0  0  0  0  0
   -5.5350   -4.6160  -11.4960 C   0  0  0  0  0  0  0  0  0  0  0  0
   -5.8900   -5.6940  -10.7860 N   0  0  0  0  0  0  0  0  0  0  0  0
   -5.4806   -8.0566   -9.8670 H   0  0  0  0  0  0  0  0  0  0  0  0
   -6.4362   -8.4653  -11.3320 H   0  0  0  0  0  0  0  0  0  0  0  0
   -4.6536   -8.6862  -11.3320 H   0  0  0  0  0  0  0  0  0  0  0  0
   -4.0619   -6.9600  -13.2561 H   0  0  0  0  0  0  0  0  0  0  0  0
   -5.9906   -2.7803  -14.1202 H   0  0  0  0  0  0  0  0  0  0  0  0
   -4.7911    1.3324  -17.1484 H   0  0  0  0  0  0  0  0  0  0  0  0
   -5.0518   -0.1124  -18.2198 H   0  0  0  0  0  0  0  0  0  0  0  0
   -6.8562    1.6207  -18.4287 H   0  0  0  0  0  0  0  0  0  0  0  0
   -7.4445   -0.0039  -17.8800 H   0  0  0  0  0  0  0  0  0  0  0  0
   -8.0285    5.5343  -18.1817 H   0  0  0  0  0  0  0  0  0  0  0  0
  -11.9782    6.0238  -15.6094 H   0  0  0  0  0  0  0  0  0  0  0  0
  -12.4648    6.8446  -17.1313 H   0  0  0  0  0  0  0  0  0  0  0  0
  -12.1246    5.0808  -17.1313 H   0  0  0  0  0  0  0  0  0  0  0  0
   -9.0790    7.8110  -16.3390 H   0  0  0  0  0  0  0  0  0  0  0  0
   -9.8340    6.9840  -15.1250 H   0  0  0  0  0  0  0  0  0  0  0  0
  -11.0479    5.3040  -19.5364 H   0  0  0  0  0  0  0  0  0  0  0  0
  -10.6453    6.3190  -21.7746 H   0  0  0  0  0  0  0  0  0  0  0  0
   -8.7673    9.7279  -19.9174 H   0  0  0  0  0  0  0  0  0  0  0  0
   -9.1648    8.7285  -17.6709 H   0  0  0  0  0  0  0  0  0  0  0  0
  -10.9304    4.1075  -15.4578 H   0  0  0  0  0  0  0  0  0  0  0  0
   -6.0168    1.9832  -14.9919 H   0  0  0  0  0  0  0  0  0  0  0  0
   -7.5831    1.3614  -14.3414 H   0  0  0  0  0  0  0  0  0  0  0  0
   -5.7081   -0.2886  -14.1149 H   0  0  0  0  0  0  0  0  0  0  0  0
   -7.0827   -0.8771  -15.1570 H   0  0  0  0  0  0  0  0  0  0  0  0
   -1.0800   -1.3384  -17.1291 H   0  0  0  0  0  0  0  0  0  0  0  0
   -2.0590   -4.5930  -13.7333 H   0  0  0  0  0  0  0  0  0  0  0  0
   -5.8323   -3.5885  -11.2393 H   0  0  0  0  0  0  0  0  0  0  0  0
  1  2  1  0
  2  3  1  0
  3  4  2  0
  4  5  1  0
  5  6  1  0
  6  7  2  0
  7  8  1  0
  8  9  1  0
  9 10  1  0
 10 11  1  0
 11 12  1  0
 12 13  1  0
 13 14  2  0
 14 15  1  0
 15 16  2  0
 16 17  1  0
 17 18  1  0
 17 19  1  1
 17 20  1  0
 20 21  1  0
 21 22  2  0
 22 23  1  0
 23 24  1  0
 23 25  2  0
 25 26  1  0
 16 27  1  0
 27 28  2  0
 12 29  1  0
 29 30  1  0
  8 31  2  0
 31 32  1  0
 32 33  2  0
 33 34  1  0
 34 35  1  0
  4 36  1  0
 36 37  2  0
 37  2  1  0
 35  5  2  0
 34  7  1  0
 30  9  1  0
 28 13  1  0
 26 20  2  0
  1 38  1  0
  1 39  1  0
  1 40  1  0
  3 41  1  0
  6 42  1  0
 10 43  1  0
 10 44  1  0
 11 45  1  0
 11 46  1  0
 15 47  1  0
 18 48  1  0
 18 49  1  0
 18 50  1  0
 19 51  1  0
 19 52  1  0
 21 53  1  0
 22 54  1  0
 25 55  1  0
 26 56  1  0
 27 57  1  0
 29 58  1  0
 29 59  1  0
 30 60  1  0
 30 61  1  0
 32 62  1  0
 35 63  1  0
 36 64  1  0
M  END
>  <meeko>  (6) 
{"is_sidechain": false}

>  <vina_affinity_kcal_mol>  (6) 
-9.004

>  <pose_rank>  (6) 
6

$$$$

     RDKit          3D

 64 69  0  0  0  0  0  0  0  0999 V2000
  -20.4550    0.9040   -6.6850 C   0  0  0  0  0  0  0  0  0  0  0  0
  -19.3310    0.0100   -6.8220 N   0  0  0  0  0  0  0  0  0  0  0  0
  -18.0160    0.3030   -6.5980 C   0  0  0  0  0  0  0  0  0  0  0  0
  -17.3220   -0.8560   -6.8600 C   0  0  0  0  0  0  0  0  0  0  0  0
  -15.8910   -1.1040   -6.7820 C   0  0  0  0  0  0  0  0  0  0  0  0
  -14.9890   -1.0420   -7.8760 C   0  0  0  0  0  0  0  0  0  0  0  0
  -13.7260   -1.3250   -7.3890 C   0  0  0  0  0  0  0  0  0  0  0  0
  -12.4170   -1.4230   -7.9780 C   0  0  0  0  0  0  0  0  0  0  0  0
  -12.1150   -1.1260   -9.3010 N   0  0  0  0  0  0  0  0  0  0  0  0
  -10.8180   -1.5470   -9.8660 C   0  0  0  0  0  0  0  0  0  0  0  0
  -10.8080   -1.5010  -11.4070 C   0  0  0  0  0  0  0  0  0  0  0  0
  -11.1950   -0.1810  -11.9120 N   0  0  0  0  0  0  0  0  0  0  0  0
  -10.4560    0.3790  -12.9330 C   0  0  0  0  0  0  0  0  0  0  0  0
  -10.1740   -0.3650  -14.0120 N   0  0  0  0  0  0  0  0  0  0  0  0
   -9.4260    0.1950  -14.9860 C   0  0  0  0  0  0  0  0  0  0  0  0
   -8.9270    1.4830  -14.9520 C   0  0  0  0  0  0  0  0  0  0  0  0
   -8.0930    2.0530  -16.0940 C   0  0  1  0  0  0  0  0  0  0  0  0
   -6.6160    2.0230  -15.6270 C   0  0  0  0  0  0  0  0  0  0  0  0
   -8.1170    1.2210  -17.3090 N   0  0  0  0  0  0  0  0  0  0  0  0
   -8.5870    3.4590  -16.5040 C   0  0  0  0  0  0  0  0  0  0  0  0
   -9.8580    3.9540  -16.1510 C   0  0  0  0  0  0  0  0  0  0  0  0
  -10.2660    5.2350  -16.5360 C   0  0  0  0  0  0  0  0  0  0  0  0
   -9.4080    6.0410  -17.2700 C   0  0  0  0  0  0  0  0  0  0  0  0
   -9.8030    7.2670  -17.6360 F   0  0  0  0  0  0  0  0  0  0  0  0
   -8.1450    5.5930  -17.6260 C   0  0  0  0  0  0  0  0  0  0  0  0
   -7.7350    4.3140  -17.2420 C   0  0  0  0  0  0  0  0  0  0  0  0
   -9.2750    2.1600  -13.8040 C   0  0  0  0  0  0  0  0  0  0  0  0
  -10.0190    1.6400  -12.8040 N   0  0  0  0  0  0  0  0  0  0  0  0
  -11.8770    0.7240  -10.9890 C   0  0  0  0  0  0  0  0  0  0  0  0
  -12.8110   -0.0590  -10.0440 C   0  0  0  0  0  0  0  0  0  0  0  0
  -11.4580   -1.8340   -7.1950 N   0  0  0  0  0  0  0  0  0  0  0  0
  -11.7120   -2.1000   -5.8750 C   0  0  0  0  0  0  0  0  0  0  0  0
  -12.8480   -1.9990   -5.2620 N   0  0  0  0  0  0  0  0  0  0  0  0
  -13.8500   -1.6070   -6.0600 N   0  0  0  0  0  0  0  0  0  0  0  0
  -15.1530   -1.4480   -5.6720 C   0  0  0  0  0  0  0  0  0  0  0  0
  -18.3120   -1.7880   -7.2330 C   0  0  0  0  0  0  0  0  0  0  0  0
  -19.5410   -1.2610   -7.2100 N   0  0  0  0  0  0  0  0  0  0  0  0
  -20.6636    1.0699   -5.6178 H   0  0  0  0  0  0  0  0  0  0  0  0
  -20.2201    1.8648   -7.1664 H   0  0  0  0  0  0  0  0  0  0  0  0
  -21.3383    0.4589   -7.1664 H   0  0  0  0  0  0  0  0  0  0  0  0
  -17.5975    1.2675   -6.2745 H   0  0  0  0  0  0  0  0  0  0  0  0
  -15.2472   -0.8111   -8.9200 H   0  0  0  0  0  0  0  0  0  0  0  0
  -10.0328   -0.8763   -9.4871 H   0  0  0  0  0  0  0  0  0  0  0  0
  -10.6397   -2.5883   -9.5594 H   0  0  0  0  0  0  0  0  0  0  0  0
   -9.7946   -1.7363  -11.7642 H   0  0  0  0  0  0  0  0  0  0  0  0
  -11.5370   -2.2371  -11.7769 H   0  0  0  0  0  0  0  0  0  0  0  0
   -9.1973   -0.4180  -15.8703 H   0  0  0  0  0  0  0  0  0  0  0  0
   -6.5790    2.0222  -14.5276 H   0  0  0  0  0  0  0  0  0  0  0  0
   -6.1284    1.1148  -16.0109 H   0  0  0  0  0  0  0  0  0  0  0  0
   -6.0920    2.9107  -16.0109 H   0  0  0  0  0  0  0  0  0  0  0  0
   -9.0320    1.2580  -17.7470 H   0  0  0  0  0  0  0  0  0  0  0  0
   -7.8970    0.2530  -17.0930 H   0  0  0  0  0  0  0  0  0  0  0  0
  -10.5404    3.3226  -15.5631 H   0  0  0  0  0  0  0  0  0  0  0  0
  -11.2647    5.6026  -16.2576 H   0  0  0  0  0  0  0  0  0  0  0  0
   -7.4709    6.2400  -18.2065 H   0  0  0  0  0  0  0  0  0  0  0  0
   -6.7294    3.9646  -17.5190 H   0  0  0  0  0  0  0  0  0  0  0  0
   -8.9224    3.1962  -13.6941 H   0  0  0  0  0  0  0  0  0  0  0  0
  -11.1267    1.2615  -10.3906 H   0  0  0  0  0  0  0  0  0  0  0  0
  -12.4810    1.4339  -11.5731 H   0  0  0  0  0  0  0  0  0  0  0  0
  -13.2477    0.6448   -9.3202 H   0  0  0  0  0  0  0  0  0  0  0  0
  -13.5813   -0.5390  -10.6655 H   0  0  0  0  0  0  0  0  0  0  0  0
  -10.8571   -2.4362   -5.2698 H   0  0  0  0  0  0  0  0  0  0  0  0
  -15.5426   -1.5733   -4.6510 H   0  0  0  0  0  0  0  0  0  0  0  0
  -18.0978   -2.8304   -7.5114 H   0  0  0  0  0  0  0  0  0  0  0  0
  1  2  1  0
  2  3  1  0
  3  4  2  0
  4  5  1  0
  5  6  1  0
  6  7  2  0
  7  8  1  0
  8  9  1  0
  9 10  1  0
 10 11  1  0
 11 12  1  0
 12 13  1  0
 13 14  2  0
 14 15  1  0
 15 16  2  0
 16 17  1  0
 17 18  1  0
 17 19  1  6
 17 20  1  0
 20 21  1  0
 21 22  2  0
 22 23  1  0
 23 24  1  0
 23 25  2  0
 25 26  1  0
 16 27  1  0
 27 28  2  0
 12 29  1  0
 29 30  1  0
  8 31  2  0
 31 32  1  0
 32 33  2  0
 33 34  1  0
 34 35  1  0
  4 36  1  0
 36 37  2  0
 37  2  1  0
 35  5  2  0
 34  7  1  0
 30  9  1  0
 28 13  1  0
 26 20  2  0
  1 38  1  0
  1 39  1  0
  1 40  1  0
  3 41  1  0
  6 42  1  0
 10 43  1  0
 10 44  1  0
 11 45  1  0
 11 46  1  0
 15 47  1  0
 18 48  1  0
 18 49  1  0
 18 50  1  0
 19 51  1  0
 19 52  1  0
 21 53  1  0
 22 54  1  0
 25 55  1  0
 26 56  1  0
 27 57  1  0
 29 58  1  0
 29 59  1  0
 30 60  1  0
 30 61  1  0
 32 62  1  0
 35 63  1  0
 36 64  1  0
M  END
>  <meeko>  (7) 
{"is_sidechain": false}

>  <vina_affinity_kcal_mol>  (7) 
-8.867

>  <pose_rank>  (7) 
7

$$$$

     RDKit          3D

 64 69  0  0  0  0  0  0  0  0999 V2000
   -8.7920   10.0060  -19.8580 C   0  0  0  0  0  0  0  0  0  0  0  0
   -9.3420    8.7430  -19.4300 N   0  0  0  0  0  0  0  0  0  0  0  0
   -9.3690    8.2470  -18.1580 C   0  0  0  0  0  0  0  0  0  0  0  0
   -9.9860    7.0190  -18.2460 C   0  0  0  0  0  0  0  0  0  0  0  0
  -10.2730    6.0620  -17.1890 C   0  0  0  0  0  0  0  0  0  0  0  0
   -9.6700    4.7840  -17.0570 C   0  0  0  0  0  0  0  0  0  0  0  0
  -10.1980    4.1910  -15.9240 C   0  0  0  0  0  0  0  0  0  0  0  0
  -10.0050    2.9270  -15.2650 C   0  0  0  0  0  0  0  0  0  0  0  0
   -9.0680    1.9710  -15.6350 N   0  0  0  0  0  0  0  0  0  0  0  0
   -9.1630    0.6040  -15.0860 C   0  0  0  0  0  0  0  0  0  0  0  0
   -8.3190   -0.4080  -15.8850 C   0  0  0  0  0  0  0  0  0  0  0  0
   -6.9200    0.0170  -15.9910 N   0  0  0  0  0  0  0  0  0  0  0  0
   -5.9270   -0.9150  -15.7710 C   0  0  0  0  0  0  0  0  0  0  0  0
   -6.2640   -2.2080  -15.6700 N   0  0  0  0  0  0  0  0  0  0  0  0
   -5.2800   -3.0990  -15.4260 C   0  0  0  0  0  0  0  0  0  0  0  0
   -3.9450   -2.7740  -15.2730 C   0  0  0  0  0  0  0  0  0  0  0  0
   -2.8840   -3.8360  -15.0060 C   0  0  1  0  0  0  0  0  0  0  0  0
   -2.6280   -4.5590  -16.3530 C   0  0  0  0  0  0  0  0  0  0  0  0
   -1.5750   -3.2750  -14.6300 N   0  0  0  0  0  0  0  0  0  0  0  0
   -3.3110   -4.7820  -13.8620 C   0  0  0  0  0  0  0  0  0  0  0  0
   -3.6410   -6.1360  -14.0730 C   0  0  0  0  0  0  0  0  0  0  0  0
   -4.0150   -6.9620  -13.0100 C   0  0  0  0  0  0  0  0  0  0  0  0
   -4.0580   -6.4520  -11.7210 C   0  0  0  0  0  0  0  0  0  0  0  0
   -4.4170   -7.2470  -10.7050 F   0  0  0  0  0  0  0  0  0  0  0  0
   -3.7270   -5.1280  -11.4710 C   0  0  0  0  0  0  0  0  0  0  0  0
   -3.3510   -4.3010  -12.5320 C   0  0  0  0  0  0  0  0  0  0  0  0
   -3.7070   -1.4230  -15.3960 C   0  0  0  0  0  0  0  0  0  0  0  0
   -4.6600   -0.4960  -15.6370 N   0  0  0  0  0  0  0  0  0  0  0  0
   -6.6150    1.4170  -15.7060 C   0  0  0  0  0  0  0  0  0  0  0  0
   -7.7530    2.3370  -16.1940 C   0  0  0  0  0  0  0  0  0  0  0  0
  -10.7890    2.6750  -14.2530 N   0  0  0  0  0  0  0  0  0  0  0  0
  -11.7000    3.6110  -13.8370 C   0  0  0  0  0  0  0  0  0  0  0  0
  -11.9060    4.7820  -14.3490 N   0  0  0  0  0  0  0  0  0  0  0  0
  -11.1300    5.0440  -15.4090 N   0  0  0  0  0  0  0  0  0  0  0  0
  -11.1650    6.1950  -16.1490 C   0  0  0  0  0  0  0  0  0  0  0  0
  -10.2940    6.8710  -19.6130 C   0  0  0  0  0  0  0  0  0  0  0  0
   -9.9030    7.9240  -20.3400 N   0  0  0  0  0  0  0  0  0  0  0  0
   -8.5293   10.6092  -18.9764 H   0  0  0  0  0  0  0  0  0  0  0  0
   -7.8902    9.8274  -20.4620 H   0  0  0  0  0  0  0  0  0  0  0  0
   -9.5371   10.5446  -20.4620 H   0  0  0  0  0  0  0  0  0  0  0  0
   -8.9783    8.7292  -17.2498 H   0  0  0  0  0  0  0  0  0  0  0  0
   -8.9202    4.3453  -17.7319 H   0  0  0  0  0  0  0  0  0  0  0  0
   -8.8087    0.6158  -14.0447 H   0  0  0  0  0  0  0  0  0  0  0  0
  -10.2149    0.2886  -15.1494 H   0  0  0  0  0  0  0  0  0  0  0  0
   -8.3578   -1.3835  -15.3781 H   0  0  0  0  0  0  0  0  0  0  0  0
   -8.7350   -0.4750  -16.9011 H   0  0  0  0  0  0  0  0  0  0  0  0
   -5.5603   -4.1595  -15.3429 H   0  0  0  0  0  0  0  0  0  0  0  0
   -2.2666   -5.5796  -16.1585 H   0  0  0  0  0  0  0  0  0  0  0  0
   -3.5645   -4.6050  -16.9282 H   0  0  0  0  0  0  0  0  0  0  0  0
   -1.8712   -4.0055  -16.9282 H   0  0  0  0  0  0  0  0  0  0  0  0
   -1.6760   -2.3120  -14.3220 H   0  0  0  0  0  0  0  0  0  0  0  0
   -0.9280   -3.3000  -15.4140 H   0  0  0  0  0  0  0  0  0  0  0  0
   -3.6035   -6.5493  -15.0917 H   0  0  0  0  0  0  0  0  0  0  0  0
   -4.2748   -8.0147  -13.1951 H   0  0  0  0  0  0  0  0  0  0  0  0
   -3.7604   -4.7326  -10.4451 H   0  0  0  0  0  0  0  0  0  0  0  0
   -3.0804   -3.2542  -12.3294 H   0  0  0  0  0  0  0  0  0  0  0  0
   -2.6690   -1.0745  -15.2907 H   0  0  0  0  0  0  0  0  0  0  0  0
   -6.4886    1.5447  -14.6208 H   0  0  0  0  0  0  0  0  0  0  0  0
   -5.6899    1.6905  -16.2346 H   0  0  0  0  0  0  0  0  0  0  0  0
   -7.5207    3.3703  -15.8966 H   0  0  0  0  0  0  0  0  0  0  0  0
   -7.8179    2.2297  -17.2868 H   0  0  0  0  0  0  0  0  0  0  0  0
  -12.3243    3.3371  -12.9737 H   0  0  0  0  0  0  0  0  0  0  0  0
  -11.7960    7.0733  -15.9477 H   0  0  0  0  0  0  0  0  0  0  0  0
  -10.7988    5.9894  -20.0348 H   0  0  0  0  0  0  0  0  0  0  0  0
  1  2  1  0
  2  3  1  0
  3  4  2  0
  4  5  1  0
  5  6  1  0
  6  7  2  0
  7  8  1  0
  8  9  1  0
  9 10  1  0
 10 11  1  0
 11 12  1  0
 12 13  1  0
 13 14  2  0
 14 15  1  0
 15 16  2  0
 16 17  1  0
 17 18  1  0
 17 19  1  1
 17 20  1  0
 20 21  1  0
 21 22  2  0
 22 23  1  0
 23 24  1  0
 23 25  2  0
 25 26  1  0
 16 27  1  0
 27 28  2  0
 12 29  1  0
 29 30  1  0
  8 31  2  0
 31 32  1  0
 32 33  2  0
 33 34  1  0
 34 35  1  0
  4 36  1  0
 36 37  2  0
 37  2  1  0
 35  5  2  0
 34  7  1  0
 30  9  1  0
 28 13  1  0
 26 20  2  0
  1 38  1  0
  1 39  1  0
  1 40  1  0
  3 41  1  0
  6 42  1  0
 10 43  1  0
 10 44  1  0
 11 45  1  0
 11 46  1  0
 15 47  1  0
 18 48  1  0
 18 49  1  0
 18 50  1  0
 19 51  1  0
 19 52  1  0
 21 53  1  0
 22 54  1  0
 25 55  1  0
 26 56  1  0
 27 57  1  0
 29 58  1  0
 29 59  1  0
 30 60  1  0
 30 61  1  0
 32 62  1  0
 35 63  1  0
 36 64  1  0
M  END
>  <meeko>  (8) 
{"is_sidechain": false}

>  <vina_affinity_kcal_mol>  (8) 
-8.859

>  <pose_rank>  (8) 
8

$$$$

     RDKit          3D

 64 69  0  0  0  0  0  0  0  0999 V2000
   -8.8470    9.8590  -19.7220 C   0  0  0  0  0  0  0  0  0  0  0  0
   -9.3760    8.5800  -19.3160 N   0  0  0  0  0  0  0  0  0  0  0  0
   -9.4570    8.0920  -18.0430 C   0  0  0  0  0  0  0  0  0  0  0  0
  -10.0250    6.8430  -18.1540 C   0  0  0  0  0  0  0  0  0  0  0  0
  -10.3380    5.8840  -17.1070 C   0  0  0  0  0  0  0  0  0  0  0  0
   -9.6650    4.6520  -16.8980 C   0  0  0  0  0  0  0  0  0  0  0  0
  -10.2480    4.0410  -15.8020 C   0  0  0  0  0  0  0  0  0  0  0  0
  -10.0290    2.8020  -15.1040 C   0  0  0  0  0  0  0  0  0  0  0  0
   -9.0010    1.9070  -15.3730 N   0  0  0  0  0  0  0  0  0  0  0  0
   -9.0520    0.5460  -14.8060 C   0  0  0  0  0  0  0  0  0  0  0  0
   -8.0750   -0.4180  -15.5090 C   0  0  0  0  0  0  0  0  0  0  0  0
   -6.7050    0.1000  -15.5030 N   0  0  0  0  0  0  0  0  0  0  0  0
   -5.6750   -0.7580  -15.1800 C   0  0  0  0  0  0  0  0  0  0  0  0
   -5.9300   -1.8070  -14.3850 N   0  0  0  0  0  0  0  0  0  0  0  0
   -4.9020   -2.6170  -14.0590 C   0  0  0  0  0  0  0  0  0  0  0  0
   -3.5990   -2.4440  -14.4860 C   0  0  0  0  0  0  0  0  0  0  0  0
   -2.4860   -3.4060  -14.0830 C   0  0  1  0  0  0  0  0  0  0  0  0
   -3.0220   -4.8380  -14.3330 C   0  0  0  0  0  0  0  0  0  0  0  0
   -1.2870   -3.3030  -14.9320 N   0  0  0  0  0  0  0  0  0  0  0  0
   -2.0270   -3.1570  -12.6290 C   0  0  0  0  0  0  0  0  0  0  0  0
   -2.2560   -4.0790  -11.5880 C   0  0  0  0  0  0  0  0  0  0  0  0
   -1.8190   -3.8200  -10.2860 C   0  0  0  0  0  0  0  0  0  0  0  0
   -1.1400   -2.6430  -10.0060 C   0  0  0  0  0  0  0  0  0  0  0  0
   -0.7220   -2.4000   -8.7580 F   0  0  0  0  0  0  0  0  0  0  0  0
   -0.8840   -1.7170  -11.0070 C   0  0  0  0  0  0  0  0  0  0  0  0
   -1.3190   -1.9740  -12.3090 C   0  0  0  0  0  0  0  0  0  0  0  0
   -3.4440   -1.3410  -15.2960 C   0  0  0  0  0  0  0  0  0  0  0  0
   -4.4440   -0.5020  -15.6470 N   0  0  0  0  0  0  0  0  0  0  0  0
   -6.5200    1.5220  -15.2210 C   0  0  0  0  0  0  0  0  0  0  0  0
   -7.6710    2.3550  -15.8240 C   0  0  0  0  0  0  0  0  0  0  0  0
  -10.8790    2.5120  -14.1570 N   0  0  0  0  0  0  0  0  0  0  0  0
  -11.8840    3.3890  -13.8400 C   0  0  0  0  0  0  0  0  0  0  0  0
  -12.1220    4.5360  -14.3910 N   0  0  0  0  0  0  0  0  0  0  0  0
  -11.2770    4.8350  -15.3860 N   0  0  0  0  0  0  0  0  0  0  0  0
  -11.3250    5.9700  -16.1500 C   0  0  0  0  0  0  0  0  0  0  0  0
  -10.2500    6.6750  -19.5350 C   0  0  0  0  0  0  0  0  0  0  0  0
   -9.8550    7.7350  -20.2480 N   0  0  0  0  0  0  0  0  0  0  0  0
   -8.6010   10.4539  -18.8300 H   0  0  0  0  0  0  0  0  0  0  0  0
   -7.9384    9.7060  -20.3228 H   0  0  0  0  0  0  0  0  0  0  0  0
   -9.5983   10.3925  -20.3228 H   0  0  0  0  0  0  0  0  0  0  0  0
   -9.1346    8.5939  -17.1188 H   0  0  0  0  0  0  0  0  0  0  0  0
   -8.8324    4.2555  -17.4976 H   0  0  0  0  0  0  0  0  0  0  0  0
   -8.7914    0.5975  -13.7386 H   0  0  0  0  0  0  0  0  0  0  0  0
  -10.0710    0.1584  -14.9526 H   0  0  0  0  0  0  0  0  0  0  0  0
   -8.0923   -1.3863  -14.9874 H   0  0  0  0  0  0  0  0  0  0  0  0
   -8.3954   -0.5284  -16.5555 H   0  0  0  0  0  0  0  0  0  0  0  0
   -5.1159   -3.4766  -13.4068 H   0  0  0  0  0  0  0  0  0  0  0  0
   -3.2075   -5.3336  -13.3687 H   0  0  0  0  0  0  0  0  0  0  0  0
   -3.9607   -4.7837  -14.9039 H   0  0  0  0  0  0  0  0  0  0  0  0
   -2.2784   -5.4134  -14.9039 H   0  0  0  0  0  0  0  0  0  0  0  0
   -0.6100   -4.0180  -14.6790 H   0  0  0  0  0  0  0  0  0  0  0  0
   -0.8490   -2.3910  -14.8370 H   0  0  0  0  0  0  0  0  0  0  0  0
   -2.7873   -5.0177  -11.8037 H   0  0  0  0  0  0  0  0  0  0  0  0
   -2.0131   -4.5481   -9.4846 H   0  0  0  0  0  0  0  0  0  0  0  0
   -0.3426   -0.7875  -10.7769 H   0  0  0  0  0  0  0  0  0  0  0  0
   -1.1070   -1.2419  -13.1021 H   0  0  0  0  0  0  0  0  0  0  0  0
   -2.4370   -1.1281  -15.6841 H   0  0  0  0  0  0  0  0  0  0  0  0
   -6.4974    1.6736  -14.1317 H   0  0  0  0  0  0  0  0  0  0  0  0
   -5.5726    1.8506  -15.6732 H   0  0  0  0  0  0  0  0  0  0  0  0
   -7.5358    3.4059  -15.5285 H   0  0  0  0  0  0  0  0  0  0  0  0
   -7.6329    2.2285  -16.9160 H   0  0  0  0  0  0  0  0  0  0  0  0
  -12.5621    3.0848  -13.0290 H   0  0  0  0  0  0  0  0  0  0  0  0
  -12.0292    6.8053  -16.0219 H   0  0  0  0  0  0  0  0  0  0  0  0
  -10.6998    5.7735  -19.9766 H   0  0  0  0  0  0  0  0  0  0  0  0
  1  2  1  0
  2  3  1  0
  3  4  2  0
  4  5  1  0
  5  6  1  0
  6  7  2  0
  7  8  1  0
  8  9  1  0
  9 10  1  0
 10 11  1  0
 11 12  1  0
 12 13  1  0
 13 14  2  0
 14 15  1  0
 15 16  2  0
 16 17  1  0
 17 18  1  0
 17 19  1  6
 17 20  1  0
 20 21  1  0
 21 22  2  0
 22 23  1  0
 23 24  1  0
 23 25  2  0
 25 26  1  0
 16 27  1  0
 27 28  2  0
 12 29  1  0
 29 30  1  0
  8 31  2  0
 31 32  1  0
 32 33  2  0
 33 34  1  0
 34 35  1  0
  4 36  1  0
 36 37  2  0
 37  2  1  0
 35  5  2  0
 34  7  1  0
 30  9  1  0
 28 13  1  0
 26 20  2  0
  1 38  1  0
  1 39  1  0
  1 40  1  0
  3 41  1  0
  6 42  1  0
 10 43  1  0
 10 44  1  0
 11 45  1  0
 11 46  1  0
 15 47  1  0
 18 48  1  0
 18 49  1  0
 18 50  1  0
 19 51  1  0
 19 52  1  0
 21 53  1  0
 22 54  1  0
 25 55  1  0
 26 56  1  0
 27 57  1  0
 29 58  1  0
 29 59  1  0
 30 60  1  0
 30 61  1  0
 32 62  1  0
 35 63  1  0
 36 64  1  0
M  END
>  <meeko>  (9) 
{"is_sidechain": false}

>  <vina_affinity_kcal_mol>  (9) 
-8.636

>  <pose_rank>  (9) 
9

$$$$
