
     RDKit          3D

 73 77  0  0  0  0  0  0  0  0999 V2000
   11.7765    0.0630   -0.9290 C   0  0  0  0  0  0  0  0  0  0  0  0
   10.3586    0.0136   -0.7621 O   0  0  0  0  0  0  0  0  0  0  0  0
    9.6638    0.1254   -1.9207 C   0  0  0  0  0  0  0  0  0  0  0  0
   10.1453    0.2563   -3.0350 O   0  0  0  0  0  0  0  0  0  0  0  0
    8.1988    0.0661   -1.6659 C   0  0  0  0  0  0  0  0  0  0  0  0
    7.6637   -0.0775   -0.3677 C   0  0  0  0  0  0  0  0  0  0  0  0
    6.2767   -0.1292   -0.1559 C   0  0  0  0  0  0  0  0  0  0  0  0
    5.4300   -0.0481   -1.2484 C   0  0  0  0  0  0  0  0  0  0  0  0
    5.9801    0.1126   -2.5271 C   0  0  0  0  0  0  0  0  0  0  0  0
    7.3400    0.1677   -2.7672 C   0  0  0  0  0  0  0  0  0  0  0  0
    4.9803    0.2275   -3.4850 N   0  0  0  0  0  0  0  0  0  0  0  0
    3.7260    0.1636   -2.9109 C   0  0  0  0  0  0  0  0  0  0  0  0
    2.6542    0.2660   -3.4809 O   0  0  0  0  0  0  0  0  0  0  0  0
    3.9638   -0.0533   -1.4317 C   0  0  0  0  0  0  0  0  0  0  0  0
    2.9153   -0.2107   -0.5861 C   0  0  0  0  0  0  0  0  0  0  0  0
    1.5903   -0.0989   -1.0013 N   0  0  0  0  0  0  0  0  0  0  0  0
    0.3366   -0.2791   -0.3929 C   0  0  0  0  0  0  0  0  0  0  0  0
    0.1006   -0.9699    0.7898 C   0  0  0  0  0  0  0  0  0  0  0  0
   -1.1878   -1.0548    1.3501 C   0  0  0  0  0  0  0  0  0  0  0  0
   -2.2983   -0.4323    0.7602 C   0  0  0  0  0  0  0  0  0  0  0  0
   -3.6234   -0.5481    1.3327 N   0  0  0  0  0  0  0  0  0  0  0  0
   -3.7872   -1.4603    2.4664 C   0  0  0  0  0  0  0  0  0  0  0  0
   -4.6989    0.2571    0.8961 C   0  0  0  0  0  0  0  0  0  0  0  0
   -4.5508    1.3385    0.3216 O   0  0  0  0  0  0  0  0  0  0  0  0
   -6.1135   -0.3002    1.1918 C   0  0  0  0  0  0  0  0  0  0  0  0
   -7.1843    0.1589    0.2879 N   0  0  0  0  0  0  0  0  0  0  0  0
   -6.9299   -0.1087   -1.1309 C   0  0  0  0  0  0  0  0  0  0  0  0
   -8.1672    0.1957   -2.0208 C   0  0  0  0  0  0  0  0  0  0  0  0
   -9.0368    1.3130   -1.5858 N   0  0  0  0  0  0  0  0  0  0  0  0
  -10.2277    0.8109   -0.8997 C   0  0  0  0  0  0  0  0  0  0  0  0
   -8.2720    2.2243   -0.7128 C   0  0  0  0  0  0  0  0  0  0  0  0
   -7.5932    1.5556    0.5129 C   0  0  0  0  0  0  0  0  0  0  0  0
   -2.0593    0.2520   -0.4355 C   0  0  0  0  0  0  0  0  0  0  0  0
   -0.7719    0.3328   -0.9919 C   0  0  0  0  0  0  0  0  0  0  0  0
    3.1959   -0.4316    0.8464 C   0  0  0  0  0  0  0  0  0  0  0  0
    3.5886   -1.6984    1.3095 C   0  0  0  0  0  0  0  0  0  0  0  0
    3.8646   -1.8991    2.6633 C   0  0  0  0  0  0  0  0  0  0  0  0
    3.7505   -0.8388    3.5621 C   0  0  0  0  0  0  0  0  0  0  0  0
    3.3581    0.4218    3.1117 C   0  0  0  0  0  0  0  0  0  0  0  0
    3.0816    0.6264    1.7587 C   0  0  0  0  0  0  0  0  0  0  0  0
   12.1180   -0.7680   -1.5541 H   0  0  0  0  0  0  0  0  0  0  0  0
   12.0786    1.0229   -1.3595 H   0  0  0  0  0  0  0  0  0  0  0  0
   12.2371   -0.0341    0.0579 H   0  0  0  0  0  0  0  0  0  0  0  0
    8.3213   -0.1448    0.4973 H   0  0  0  0  0  0  0  0  0  0  0  0
    5.9053   -0.2193    0.8584 H   0  0  0  0  0  0  0  0  0  0  0  0
    7.7293    0.2914   -3.7729 H   0  0  0  0  0  0  0  0  0  0  0  0
    5.1205    0.3744   -4.4734 H   0  0  0  0  0  0  0  0  0  0  0  0
    1.5064    0.1404   -1.9958 H   0  0  0  0  0  0  0  0  0  0  0  0
    0.8967   -1.4928    1.3040 H   0  0  0  0  0  0  0  0  0  0  0  0
   -1.2694   -1.6247    2.2699 H   0  0  0  0  0  0  0  0  0  0  0  0
   -3.5401   -2.4789    2.1514 H   0  0  0  0  0  0  0  0  0  0  0  0
   -3.1366   -1.1400    3.2867 H   0  0  0  0  0  0  0  0  0  0  0  0
   -4.7992   -1.4630    2.8728 H   0  0  0  0  0  0  0  0  0  0  0  0
   -6.0853   -1.3933    1.1158 H   0  0  0  0  0  0  0  0  0  0  0  0
   -6.3767   -0.0434    2.2245 H   0  0  0  0  0  0  0  0  0  0  0  0
   -6.6587   -1.1616   -1.2753 H   0  0  0  0  0  0  0  0  0  0  0  0
   -6.0883    0.4923   -1.4962 H   0  0  0  0  0  0  0  0  0  0  0  0
   -7.8002    0.4373   -3.0264 H   0  0  0  0  0  0  0  0  0  0  0  0
   -8.7570   -0.7228   -2.1401 H   0  0  0  0  0  0  0  0  0  0  0  0
  -10.8603    1.6430   -0.5708 H   0  0  0  0  0  0  0  0  0  0  0  0
   -9.9967    0.1899   -0.0278 H   0  0  0  0  0  0  0  0  0  0  0  0
  -10.8368    0.2146   -1.5885 H   0  0  0  0  0  0  0  0  0  0  0  0
   -7.4918    2.6929   -1.3282 H   0  0  0  0  0  0  0  0  0  0  0  0
   -8.9098    3.0504   -0.3742 H   0  0  0  0  0  0  0  0  0  0  0  0
   -8.3036    1.5559    1.3488 H   0  0  0  0  0  0  0  0  0  0  0  0
   -6.7583    2.1953    0.8174 H   0  0  0  0  0  0  0  0  0  0  0  0
   -2.8570    0.7350   -0.9912 H   0  0  0  0  0  0  0  0  0  0  0  0
   -0.6491    0.8960   -1.9155 H   0  0  0  0  0  0  0  0  0  0  0  0
    3.6721   -2.5315    0.6151 H   0  0  0  0  0  0  0  0  0  0  0  0
    4.1646   -2.8823    3.0164 H   0  0  0  0  0  0  0  0  0  0  0  0
    3.9619   -0.9956    4.6169 H   0  0  0  0  0  0  0  0  0  0  0  0
    3.2608    1.2458    3.8140 H   0  0  0  0  0  0  0  0  0  0  0  0
    2.7644    1.6091    1.4161 H   0  0  0  0  0  0  0  0  0  0  0  0
  1  2  1  0
  2  3  1  0
  3  4  2  0
  3  5  1  0
  5  6  1  0
  6  7  2  0
  7  8  1  0
  8  9  2  0
  9 10  1  0
  9 11  1  0
 11 12  1  0
 12 13  2  0
 12 14  1  0
 14 15  2  0
 15 16  1  0
 16 17  1  0
 17 18  1  0
 18 19  2  0
 19 20  1  0
 20 21  1  0
 21 22  1  0
 21 23  1  0
 23 24  2  0
 23 25  1  0
 25 26  1  0
 26 27  1  0
 27 28  1  0
 28 29  1  0
 29 30  1  0
 29 31  1  0
 31 32  1  0
 20 33  2  0
 33 34  1  0
 15 35  1  0
 35 36  2  0
 36 37  1  0
 37 38  2  0
 38 39  1  0
 39 40  2  0
 10  5  2  0
 34 17  2  0
 40 35  1  0
 14  8  1  0
 32 26  1  0
  1 41  1  0
  1 42  1  0
  1 43  1  0
  6 44  1  0
  7 45  1  0
 10 46  1  0
 11 47  1  0
 16 48  1  0
 18 49  1  0
 19 50  1  0
 22 51  1  0
 22 52  1  0
 22 53  1  0
 25 54  1  0
 25 55  1  0
 27 56  1  0
 27 57  1  0
 28 58  1  0
 28 59  1  0
 30 60  1  0
 30 61  1  0
 30 62  1  0
 31 63  1  0
 31 64  1  0
 32 65  1  0
 32 66  1  0
 33 67  1  0
 34 68  1  0
 36 69  1  0
 37 70  1  0
 38 71  1  0
 39 72  1  0
 40 73  1  0
M  END
$$$$
