
     RDKit          3D

 73 77  0  0  0  0  0  0  0  0999 V2000
   25.6200    1.2320   10.5340 C   0  0  0  0  0  0  0  0  0  0  0  0
   26.7010    0.4950   11.1060 O   0  0  0  0  0  0  0  0  0  0  0  0
   26.5810   -0.8500   10.9750 C   0  0  0  0  0  0  0  0  0  0  0  0
   27.3980   -1.5940   10.4580 O   0  0  0  0  0  0  0  0  0  0  0  0
   25.2950   -1.3240   11.5540 C   0  0  0  0  0  0  0  0  0  0  0  0
   24.9780   -1.1640   12.9190 C   0  0  0  0  0  0  0  0  0  0  0  0
   23.7560   -1.6210   13.4390 C   0  0  0  0  0  0  0  0  0  0  0  0
   22.8600   -2.2470   12.5890 C   0  0  0  0  0  0  0  0  0  0  0  0
   23.1860   -2.3800   11.2330 C   0  0  0  0  0  0  0  0  0  0  0  0
   24.3790   -1.9400   10.6920 C   0  0  0  0  0  0  0  0  0  0  0  0
   22.1480   -2.9820   10.5310 N   0  0  0  0  0  0  0  0  0  0  0  0
   21.0830   -3.2710   11.3610 C   0  0  0  0  0  0  0  0  0  0  0  0
   20.0180   -3.7680   11.0390 O   0  0  0  0  0  0  0  0  0  0  0  0
   21.5140   -2.8360   12.7450 C   0  0  0  0  0  0  0  0  0  0  0  0
   20.6960   -3.0340   13.8100 C   0  0  0  0  0  0  0  0  0  0  0  0
   19.4110   -3.5560   13.6850 N   0  0  0  0  0  0  0  0  0  0  0  0
   18.7280   -4.6610   14.2180 C   0  0  0  0  0  0  0  0  0  0  0  0
   17.6990   -4.6070   15.1500 C   0  0  0  0  0  0  0  0  0  0  0  0
   17.0390   -5.7710   15.5890 C   0  0  0  0  0  0  0  0  0  0  0  0
   17.3680   -7.0430   15.0970 C   0  0  0  0  0  0  0  0  0  0  0  0
   16.6980   -8.2350   15.5750 N   0  0  0  0  0  0  0  0  0  0  0  0
   17.4950   -9.1870   16.3510 C   0  0  0  0  0  0  0  0  0  0  0  0
   15.3110   -8.4340   15.4000 C   0  0  0  0  0  0  0  0  0  0  0  0
   14.4820   -8.2840   16.3000 O   0  0  0  0  0  0  0  0  0  0  0  0
   14.8730   -8.8710   13.9800 C   0  0  0  0  0  0  0  0  0  0  0  0
   15.0360   -7.8580   12.9200 N   0  0  0  0  0  0  0  0  0  0  0  0
   14.1970   -6.6680   13.0900 C   0  0  0  0  0  0  0  0  0  0  0  0
   14.5530   -5.5440   12.0770 C   0  0  0  0  0  0  0  0  0  0  0  0
   15.0190   -5.9810   10.7400 N   0  0  0  0  0  0  0  0  0  0  0  0
   16.4760   -5.8980   10.6430 C   0  0  0  0  0  0  0  0  0  0  0  0
   14.5510   -7.3550   10.4790 C   0  0  0  0  0  0  0  0  0  0  0  0
   14.9350   -8.4050   11.5560 C   0  0  0  0  0  0  0  0  0  0  0  0
   18.4120   -7.0950   14.1680 C   0  0  0  0  0  0  0  0  0  0  0  0
   19.0680   -5.9320   13.7340 C   0  0  0  0  0  0  0  0  0  0  0  0
   21.1640   -2.6040   15.1420 C   0  0  0  0  0  0  0  0  0  0  0  0
   21.3990   -1.2470   15.4130 C   0  0  0  0  0  0  0  0  0  0  0  0
   21.8290   -0.8440   16.6790 C   0  0  0  0  0  0  0  0  0  0  0  0
   22.0280   -1.7930   17.6810 C   0  0  0  0  0  0  0  0  0  0  0  0
   21.8000   -3.1450   17.4210 C   0  0  0  0  0  0  0  0  0  0  0  0
   21.3690   -3.5500   16.1570 C   0  0  0  0  0  0  0  0  0  0  0  0
   24.9992    1.6553   11.3374 H   0  0  0  0  0  0  0  0  0  0  0  0
   26.0200    2.0463    9.9120 H   0  0  0  0  0  0  0  0  0  0  0  0
   25.0081    0.5622    9.9120 H   0  0  0  0  0  0  0  0  0  0  0  0
   25.7002   -0.6729   13.5877 H   0  0  0  0  0  0  0  0  0  0  0  0
   23.5148   -1.4839   14.5034 H   0  0  0  0  0  0  0  0  0  0  0  0
   24.6013   -2.0690    9.6224 H   0  0  0  0  0  0  0  0  0  0  0  0
   22.1330   -3.1660    9.5400 H   0  0  0  0  0  0  0  0  0  0  0  0
   18.8320   -3.0270   13.0210 H   0  0  0  0  0  0  0  0  0  0  0  0
   17.3924   -3.6313   15.5548 H   0  0  0  0  0  0  0  0  0  0  0  0
   16.2411   -5.6801   16.3407 H   0  0  0  0  0  0  0  0  0  0  0  0
   17.3417   -9.0039   17.4248 H   0  0  0  0  0  0  0  0  0  0  0  0
   17.1824  -10.2127   16.1056 H   0  0  0  0  0  0  0  0  0  0  0  0
   18.5597   -9.0596   16.1056 H   0  0  0  0  0  0  0  0  0  0  0  0
   15.4679   -9.7526   13.6992 H   0  0  0  0  0  0  0  0  0  0  0  0
   13.7922   -9.0646   14.0460 H   0  0  0  0  0  0  0  0  0  0  0  0
   13.1447   -6.9538   12.9455 H   0  0  0  0  0  0  0  0  0  0  0  0
   14.3719   -6.2755   14.1026 H   0  0  0  0  0  0  0  0  0  0  0  0
   13.6535   -4.9277   11.9322 H   0  0  0  0  0  0  0  0  0  0  0  0
   15.4060   -5.0109   12.5222 H   0  0  0  0  0  0  0  0  0  0  0  0
   16.9099   -5.8733   11.6535 H   0  0  0  0  0  0  0  0  0  0  0  0
   16.8580   -6.7758   10.1013 H   0  0  0  0  0  0  0  0  0  0  0  0
   16.7559   -4.9825   10.1013 H   0  0  0  0  0  0  0  0  0  0  0  0
   13.4538   -7.3313   10.4041 H   0  0  0  0  0  0  0  0  0  0  0  0
   15.0505   -7.6745    9.5525 H   0  0  0  0  0  0  0  0  0  0  0  0
   14.1697   -9.1952   11.5565 H   0  0  0  0  0  0  0  0  0  0  0  0
   15.9339   -8.7813   11.2903 H   0  0  0  0  0  0  0  0  0  0  0  0
   18.7267   -8.0701   13.7678 H   0  0  0  0  0  0  0  0  0  0  0  0
   19.8741   -6.0209   12.9908 H   0  0  0  0  0  0  0  0  0  0  0  0
   21.2436   -0.4968   14.6237 H   0  0  0  0  0  0  0  0  0  0  0  0
   22.0105    0.2211   16.8856 H   0  0  0  0  0  0  0  0  0  0  0  0
   22.3654   -1.4753   18.6786 H   0  0  0  0  0  0  0  0  0  0  0  0
   21.9601   -3.8917   18.2127 H   0  0  0  0  0  0  0  0  0  0  0  0
   21.1892   -4.6164   15.9557 H   0  0  0  0  0  0  0  0  0  0  0  0
  1  2  1  0
  2  3  1  0
  3  4  2  0
  3  5  1  0
  5  6  1  0
  6  7  2  0
  7  8  1  0
  8  9  2  0
  9 10  1  0
  9 11  1  0
 11 12  1  0
 12 13  2  0
 12 14  1  0
 14 15  2  0
 15 16  1  0
 16 17  1  0
 17 18  1  0
 18 19  2  0
 19 20  1  0
 20 21  1  0
 21 22  1  0
 21 23  1  0
 23 24  2  0
 23 25  1  0
 25 26  1  0
 26 27  1  0
 27 28  1  0
 28 29  1  0
 29 30  1  0
 29 31  1  0
 31 32  1  0
 20 33  2  0
 33 34  1  0
 15 35  1  0
 35 36  2  0
 36 37  1  0
 37 38  2  0
 38 39  1  0
 39 40  2  0
 10  5  2  0
 34 17  2  0
 40 35  1  0
 14  8  1  0
 32 26  1  0
  1 41  1  0
  1 42  1  0
  1 43  1  0
  6 44  1  0
  7 45  1  0
 10 46  1  0
 11 47  1  0
 16 48  1  0
 18 49  1  0
 19 50  1  0
 22 51  1  0
 22 52  1  0
 22 53  1  0
 25 54  1  0
 25 55  1  0
 27 56  1  0
 27 57  1  0
 28 58  1  0
 28 59  1  0
 30 60  1  0
 30 61  1  0
 30 62  1  0
 31 63  1  0
 31 64  1  0
 32 65  1  0
 32 66  1  0
 33 67  1  0
 34 68  1  0
 36 69  1  0
 37 70  1  0
 38 71  1  0
 39 72  1  0
 40 73  1  0
M  END
>  <meeko>  (1) 
{"is_sidechain": false}

>  <vina_affinity_kcal_mol>  (1) 
-6.481

>  <pose_rank>  (1) 
1

$$$$

     RDKit          3D

 73 77  0  0  0  0  0  0  0  0999 V2000
   24.3620    1.8660   10.4930 C   0  0  0  0  0  0  0  0  0  0  0  0
   25.7390    1.7640   10.8610 O   0  0  0  0  0  0  0  0  0  0  0  0
   26.2180    0.4950   10.8570 C   0  0  0  0  0  0  0  0  0  0  0  0
   27.3110    0.1430   10.4430 O   0  0  0  0  0  0  0  0  0  0  0  0
   25.2220   -0.4460   11.4360 C   0  0  0  0  0  0  0  0  0  0  0  0
   24.6770   -0.2700   12.7260 C   0  0  0  0  0  0  0  0  0  0  0  0
   23.7380   -1.1740   13.2470 C   0  0  0  0  0  0  0  0  0  0  0  0
   23.3550   -2.2590   12.4770 C   0  0  0  0  0  0  0  0  0  0  0  0
   23.8920   -2.4060   11.1910 C   0  0  0  0  0  0  0  0  0  0  0  0
   24.8180   -1.5330   10.6510 C   0  0  0  0  0  0  0  0  0  0  0  0
   23.3530   -3.5170   10.5540 N   0  0  0  0  0  0  0  0  0  0  0  0
   22.4310   -4.1580   11.3570 C   0  0  0  0  0  0  0  0  0  0  0  0
   21.7670   -5.1380   11.0700 O   0  0  0  0  0  0  0  0  0  0  0  0
   22.4170   -3.3860   12.6590 C   0  0  0  0  0  0  0  0  0  0  0  0
   21.6380   -3.7990   13.6910 C   0  0  0  0  0  0  0  0  0  0  0  0
   20.7630   -4.8780   13.5880 N   0  0  0  0  0  0  0  0  0  0  0  0
   19.3700   -5.0250   13.4920 C   0  0  0  0  0  0  0  0  0  0  0  0
   18.4270   -4.0700   13.8530 C   0  0  0  0  0  0  0  0  0  0  0  0
   17.0480   -4.2900   13.6720 C   0  0  0  0  0  0  0  0  0  0  0  0
   16.5510   -5.4720   13.1010 C   0  0  0  0  0  0  0  0  0  0  0  0
   15.1290   -5.6960   12.9440 N   0  0  0  0  0  0  0  0  0  0  0  0
   14.2520   -4.5270   13.0290 C   0  0  0  0  0  0  0  0  0  0  0  0
   14.6050   -6.9670   12.6180 C   0  0  0  0  0  0  0  0  0  0  0  0
   14.3080   -7.3070   11.4710 O   0  0  0  0  0  0  0  0  0  0  0  0
   14.4090   -7.9350   13.8110 C   0  0  0  0  0  0  0  0  0  0  0  0
   15.4060   -7.8280   14.8920 N   0  0  0  0  0  0  0  0  0  0  0  0
   16.2520   -9.0150   15.0500 C   0  0  0  0  0  0  0  0  0  0  0  0
   17.4180   -8.7810   16.0500 C   0  0  0  0  0  0  0  0  0  0  0  0
   17.1460   -7.8660   17.1830 N   0  0  0  0  0  0  0  0  0  0  0  0
   17.7070   -6.5390   16.9280 C   0  0  0  0  0  0  0  0  0  0  0  0
   15.6910   -7.7870   17.4150 C   0  0  0  0  0  0  0  0  0  0  0  0
   14.8410   -7.3880   16.1790 C   0  0  0  0  0  0  0  0  0  0  0  0
   17.5020   -6.4350   12.7510 C   0  0  0  0  0  0  0  0  0  0  0  0
   18.8770   -6.2120   12.9340 C   0  0  0  0  0  0  0  0  0  0  0  0
   21.6660   -3.0220   14.9450 C   0  0  0  0  0  0  0  0  0  0  0  0
   21.4130   -1.6410   14.9350 C   0  0  0  0  0  0  0  0  0  0  0  0
   21.4290   -0.9120   16.1260 C   0  0  0  0  0  0  0  0  0  0  0  0
   21.6970   -1.5570   17.3330 C   0  0  0  0  0  0  0  0  0  0  0  0
   21.9530   -2.9280   17.3530 C   0  0  0  0  0  0  0  0  0  0  0  0
   21.9370   -3.6590   16.1640 C   0  0  0  0  0  0  0  0  0  0  0  0
   23.7423    1.9119   11.4007 H   0  0  0  0  0  0  0  0  0  0  0  0
   24.2082    2.7780    9.8975 H   0  0  0  0  0  0  0  0  0  0  0  0
   24.0755    0.9866    9.8975 H   0  0  0  0  0  0  0  0  0  0  0  0
   24.9936    0.5905   13.3337 H   0  0  0  0  0  0  0  0  0  0  0  0
   23.3135   -1.0229   14.2505 H   0  0  0  0  0  0  0  0  0  0  0  0
   25.2233   -1.6868    9.6400 H   0  0  0  0  0  0  0  0  0  0  0  0
   23.5630   -3.8200    9.6150 H   0  0  0  0  0  0  0  0  0  0  0  0
   21.2460   -5.7840   13.6240 H   0  0  0  0  0  0  0  0  0  0  0  0
   18.7660   -3.1195   14.2906 H   0  0  0  0  0  0  0  0  0  0  0  0
   16.3382   -3.5113   13.9879 H   0  0  0  0  0  0  0  0  0  0  0  0
   14.0685   -4.2824   14.0856 H   0  0  0  0  0  0  0  0  0  0  0  0
   14.7327   -3.6711   12.5326 H   0  0  0  0  0  0  0  0  0  0  0  0
   13.2958   -4.7491   12.5326 H   0  0  0  0  0  0  0  0  0  0  0  0
   13.4174   -7.7396   14.2453 H   0  0  0  0  0  0  0  0  0  0  0  0
   14.5232   -8.9477   13.3971 H   0  0  0  0  0  0  0  0  0  0  0  0
   15.6313   -9.8449   15.4187 H   0  0  0  0  0  0  0  0  0  0  0  0
   16.6923   -9.2467   14.0689 H   0  0  0  0  0  0  0  0  0  0  0  0
   17.6987   -9.7581   16.4700 H   0  0  0  0  0  0  0  0  0  0  0  0
   18.2089   -8.2901   15.4639 H   0  0  0  0  0  0  0  0  0  0  0  0
   17.9180   -6.0400   17.8853 H   0  0  0  0  0  0  0  0  0  0  0  0
   18.6397   -6.6394   16.3535 H   0  0  0  0  0  0  0  0  0  0  0  0
   16.9851   -5.9400   16.3535 H   0  0  0  0  0  0  0  0  0  0  0  0
   15.3479   -8.7740   17.7586 H   0  0  0  0  0  0  0  0  0  0  0  0
   15.5448   -6.9863   18.1549 H   0  0  0  0  0  0  0  0  0  0  0  0
   13.8418   -7.8349   16.2883 H   0  0  0  0  0  0  0  0  0  0  0  0
   14.8148   -6.2886   16.1541 H   0  0  0  0  0  0  0  0  0  0  0  0
   17.1656   -7.3904   12.3220 H   0  0  0  0  0  0  0  0  0  0  0  0
   19.5887   -6.9936   12.6297 H   0  0  0  0  0  0  0  0  0  0  0  0
   21.2010   -1.1305   13.9839 H   0  0  0  0  0  0  0  0  0  0  0  0
   21.2304    0.1698   16.1121 H   0  0  0  0  0  0  0  0  0  0  0  0
   21.7065   -0.9833   18.2715 H   0  0  0  0  0  0  0  0  0  0  0  0
   22.1676   -3.4333   18.3062 H   0  0  0  0  0  0  0  0  0  0  0  0
   22.1380   -4.7403   16.1836 H   0  0  0  0  0  0  0  0  0  0  0  0
  1  2  1  0
  2  3  1  0
  3  4  2  0
  3  5  1  0
  5  6  1  0
  6  7  2  0
  7  8  1  0
  8  9  2  0
  9 10  1  0
  9 11  1  0
 11 12  1  0
 12 13  2  0
 12 14  1  0
 14 15  2  0
 15 16  1  0
 16 17  1  0
 17 18  1  0
 18 19  2  0
 19 20  1  0
 20 21  1  0
 21 22  1  0
 21 23  1  0
 23 24  2  0
 23 25  1  0
 25 26  1  0
 26 27  1  0
 27 28  1  0
 28 29  1  0
 29 30  1  0
 29 31  1  0
 31 32  1  0
 20 33  2  0
 33 34  1  0
 15 35  1  0
 35 36  2  0
 36 37  1  0
 37 38  2  0
 38 39  1  0
 39 40  2  0
 10  5  2  0
 34 17  2  0
 40 35  1  0
 14  8  1  0
 32 26  1  0
  1 41  1  0
  1 42  1  0
  1 43  1  0
  6 44  1  0
  7 45  1  0
 10 46  1  0
 11 47  1  0
 16 48  1  0
 18 49  1  0
 19 50  1  0
 22 51  1  0
 22 52  1  0
 22 53  1  0
 25 54  1  0
 25 55  1  0
 27 56  1  0
 27 57  1  0
 28 58  1  0
 28 59  1  0
 30 60  1  0
 30 61  1  0
 30 62  1  0
 31 63  1  0
 31 64  1  0
 32 65  1  0
 32 66  1  0
 33 67  1  0
 34 68  1  0
 36 69  1  0
 37 70  1  0
 38 71  1  0
 39 72  1  0
 40 73  1  0
M  END
>  <meeko>  (2) 
{"is_sidechain": false}

>  <vina_affinity_kcal_mol>  (2) 
-6.268

>  <pose_rank>  (2) 
2

$$$$

     RDKit          3D

 73 77  0  0  0  0  0  0  0  0999 V2000
   26.4850    0.8730   11.5350 C   0  0  0  0  0  0  0  0  0  0  0  0
   27.3190   -0.2500   11.8260 O   0  0  0  0  0  0  0  0  0  0  0  0
   26.8780   -1.4160   11.2930 C   0  0  0  0  0  0  0  0  0  0  0  0
   27.5020   -2.1380   10.5320 O   0  0  0  0  0  0  0  0  0  0  0  0
   25.4990   -1.7220   11.7610 C   0  0  0  0  0  0  0  0  0  0  0  0
   25.1210   -1.6160   13.1170 C   0  0  0  0  0  0  0  0  0  0  0  0
   23.8120   -1.9100   13.5310 C   0  0  0  0  0  0  0  0  0  0  0  0
   22.8870   -2.3200   12.5850 C   0  0  0  0  0  0  0  0  0  0  0  0
   23.2770   -2.4000   11.2410 C   0  0  0  0  0  0  0  0  0  0  0  0
   24.5570   -2.1170   10.8030 C   0  0  0  0  0  0  0  0  0  0  0  0
   22.2070   -2.7740   10.4370 N   0  0  0  0  0  0  0  0  0  0  0  0
   21.0580   -2.9510   11.1820 C   0  0  0  0  0  0  0  0  0  0  0  0
   19.9530   -3.2470   10.7630 O   0  0  0  0  0  0  0  0  0  0  0  0
   21.4590   -2.6960   12.6190 C   0  0  0  0  0  0  0  0  0  0  0  0
   20.5530   -2.8410   13.6180 C   0  0  0  0  0  0  0  0  0  0  0  0
   19.2130   -3.1400   13.3820 N   0  0  0  0  0  0  0  0  0  0  0  0
   18.4760   -4.3180   13.1830 C   0  0  0  0  0  0  0  0  0  0  0  0
   17.1030   -4.4560   13.3580 C   0  0  0  0  0  0  0  0  0  0  0  0
   16.4430   -5.6690   13.0850 C   0  0  0  0  0  0  0  0  0  0  0  0
   17.1260   -6.7950   12.6010 C   0  0  0  0  0  0  0  0  0  0  0  0
   16.4380   -8.0450   12.3480 N   0  0  0  0  0  0  0  0  0  0  0  0
   17.2540   -9.1880   11.9350 C   0  0  0  0  0  0  0  0  0  0  0  0
   15.0540   -8.1970   12.5860 C   0  0  0  0  0  0  0  0  0  0  0  0
   14.1980   -8.1150   11.7020 O   0  0  0  0  0  0  0  0  0  0  0  0
   14.6550   -8.4720   14.0570 C   0  0  0  0  0  0  0  0  0  0  0  0
   15.6580   -8.1010   15.0720 N   0  0  0  0  0  0  0  0  0  0  0  0
   16.7490   -9.0690   15.2230 C   0  0  0  0  0  0  0  0  0  0  0  0
   17.8860   -8.5400   16.1420 C   0  0  0  0  0  0  0  0  0  0  0  0
   17.4790   -7.6510   17.2540 N   0  0  0  0  0  0  0  0  0  0  0  0
   17.7240   -6.2480   16.9170 C   0  0  0  0  0  0  0  0  0  0  0  0
   16.0550   -7.8740   17.5700 C   0  0  0  0  0  0  0  0  0  0  0  0
   15.0770   -7.7290   16.3730 C   0  0  0  0  0  0  0  0  0  0  0  0
   18.5070   -6.6570   12.4370 C   0  0  0  0  0  0  0  0  0  0  0  0
   19.1620   -5.4460   12.7130 C   0  0  0  0  0  0  0  0  0  0  0  0
   20.9930   -2.5930   15.0050 C   0  0  0  0  0  0  0  0  0  0  0  0
   21.3240   -1.2960   15.4270 C   0  0  0  0  0  0  0  0  0  0  0  0
   21.7290   -1.0640   16.7440 C   0  0  0  0  0  0  0  0  0  0  0  0
   21.8040   -2.1250   17.6460 C   0  0  0  0  0  0  0  0  0  0  0  0
   21.4800   -3.4190   17.2350 C   0  0  0  0  0  0  0  0  0  0  0  0
   21.0750   -3.6530   15.9200 C   0  0  0  0  0  0  0  0  0  0  0  0
   26.1450    1.3308   12.4757 H   0  0  0  0  0  0  0  0  0  0  0  0
   27.0550    1.6119   10.9526 H   0  0  0  0  0  0  0  0  0  0  0  0
   25.6129    0.5409   10.9526 H   0  0  0  0  0  0  0  0  0  0  0  0
   25.8649   -1.2976   13.8621 H   0  0  0  0  0  0  0  0  0  0  0  0
   23.5258   -1.8163   14.5890 H   0  0  0  0  0  0  0  0  0  0  0  0
   24.8262   -2.1991    9.7396 H   0  0  0  0  0  0  0  0  0  0  0  0
   22.2280   -2.8780    9.4340 H   0  0  0  0  0  0  0  0  0  0  0  0
   18.6280   -2.3000   13.3010 H   0  0  0  0  0  0  0  0  0  0  0  0
   16.5188   -3.5965   13.7184 H   0  0  0  0  0  0  0  0  0  0  0  0
   15.3585   -5.7362   13.2564 H   0  0  0  0  0  0  0  0  0  0  0  0
   17.6284   -9.7124   12.8265 H   0  0  0  0  0  0  0  0  0  0  0  0
   16.6424   -9.8771   11.3341 H   0  0  0  0  0  0  0  0  0  0  0  0
   18.1044   -8.8334   11.3341 H   0  0  0  0  0  0  0  0  0  0  0  0
   13.7351   -7.9073   14.2688 H   0  0  0  0  0  0  0  0  0  0  0  0
   14.5374   -9.5628   14.1367 H   0  0  0  0  0  0  0  0  0  0  0  0
   16.3433   -9.9937   15.6592 H   0  0  0  0  0  0  0  0  0  0  0  0
   17.1788   -9.2489   14.2265 H   0  0  0  0  0  0  0  0  0  0  0  0
   18.3939   -9.4117   16.5802 H   0  0  0  0  0  0  0  0  0  0  0  0
   18.5203   -7.9198   15.4916 H   0  0  0  0  0  0  0  0  0  0  0  0
   17.8265   -5.6613   17.8418 H   0  0  0  0  0  0  0  0  0  0  0  0
   18.6496   -6.1686   16.3280 H   0  0  0  0  0  0  0  0  0  0  0  0
   16.8801   -5.8596   16.3280 H   0  0  0  0  0  0  0  0  0  0  0  0
   15.9519   -8.8931   17.9711 H   0  0  0  0  0  0  0  0  0  0  0  0
   15.7765   -7.0870   18.2862 H   0  0  0  0  0  0  0  0  0  0  0  0
   14.2056   -8.3740   16.5591 H   0  0  0  0  0  0  0  0  0  0  0  0
   14.8115   -6.6635   16.3082 H   0  0  0  0  0  0  0  0  0  0  0  0
   19.0946   -7.5171   12.0835 H   0  0  0  0  0  0  0  0  0  0  0  0
   20.2487   -5.3806   12.5552 H   0  0  0  0  0  0  0  0  0  0  0  0
   21.2643   -0.4578   14.7172 H   0  0  0  0  0  0  0  0  0  0  0  0
   21.9884   -0.0456   17.0690 H   0  0  0  0  0  0  0  0  0  0  0  0
   22.1192   -1.9417   18.6838 H   0  0  0  0  0  0  0  0  0  0  0  0
   21.5439   -4.2545   17.9476 H   0  0  0  0  0  0  0  0  0  0  0  0
   20.8189   -4.6737   15.5996 H   0  0  0  0  0  0  0  0  0  0  0  0
  1  2  1  0
  2  3  1  0
  3  4  2  0
  3  5  1  0
  5  6  1  0
  6  7  2  0
  7  8  1  0
  8  9  2  0
  9 10  1  0
  9 11  1  0
 11 12  1  0
 12 13  2  0
 12 14  1  0
 14 15  2  0
 15 16  1  0
 16 17  1  0
 17 18  1  0
 18 19  2  0
 19 20  1  0
 20 21  1  0
 21 22  1  0
 21 23  1  0
 23 24  2  0
 23 25  1  0
 25 26  1  0
 26 27  1  0
 27 28  1  0
 28 29  1  0
 29 30  1  0
 29 31  1  0
 31 32  1  0
 20 33  2  0
 33 34  1  0
 15 35  1  0
 35 36  2  0
 36 37  1  0
 37 38  2  0
 38 39  1  0
 39 40  2  0
 10  5  2  0
 34 17  2  0
 40 35  1  0
 14  8  1  0
 32 26  1  0
  1 41  1  0
  1 42  1  0
  1 43  1  0
  6 44  1  0
  7 45  1  0
 10 46  1  0
 11 47  1  0
 16 48  1  0
 18 49  1  0
 19 50  1  0
 22 51  1  0
 22 52  1  0
 22 53  1  0
 25 54  1  0
 25 55  1  0
 27 56  1  0
 27 57  1  0
 28 58  1  0
 28 59  1  0
 30 60  1  0
 30 61  1  0
 30 62  1  0
 31 63  1  0
 31 64  1  0
 32 65  1  0
 32 66  1  0
 33 67  1  0
 34 68  1  0
 36 69  1  0
 37 70  1  0
 38 71  1  0
 39 72  1  0
 40 73  1  0
M  END
>  <meeko>  (3) 
{"is_sidechain": false}

>  <vina_affinity_kcal_mol>  (3) 
-5.299

>  <pose_rank>  (3) 
3

$$$$

     RDKit          3D

 73 77  0  0  0  0  0  0  0  0999 V2000
   25.9640    0.9360   11.4990 C   0  0  0  0  0  0  0  0  0  0  0  0
   26.2820   -0.1860   10.6730 O   0  0  0  0  0  0  0  0  0  0  0  0
   26.3650   -1.3600   11.3460 C   0  0  0  0  0  0  0  0  0  0  0  0
   27.3510   -2.0760   11.4180 O   0  0  0  0  0  0  0  0  0  0  0  0
   25.0720   -1.6810   12.0090 C   0  0  0  0  0  0  0  0  0  0  0  0
   24.8690   -1.5050   13.3940 C   0  0  0  0  0  0  0  0  0  0  0  0
   23.6380   -1.8160   13.9930 C   0  0  0  0  0  0  0  0  0  0  0  0
   22.6160   -2.3120   13.2020 C   0  0  0  0  0  0  0  0  0  0  0  0
   22.8300   -2.4620   11.8250 C   0  0  0  0  0  0  0  0  0  0  0  0
   24.0300   -2.1640   11.2070 C   0  0  0  0  0  0  0  0  0  0  0  0
   21.6810   -2.9190   11.1920 N   0  0  0  0  0  0  0  0  0  0  0  0
   20.6470   -3.0870   12.0910 C   0  0  0  0  0  0  0  0  0  0  0  0
   19.5090   -3.4440   11.8390 O   0  0  0  0  0  0  0  0  0  0  0  0
   21.2200   -2.7320   13.4450 C   0  0  0  0  0  0  0  0  0  0  0  0
   20.4580   -2.8450   14.5620 C   0  0  0  0  0  0  0  0  0  0  0  0
   19.1120   -3.2010   14.5220 N   0  0  0  0  0  0  0  0  0  0  0  0
   18.3980   -4.4080   14.6070 C   0  0  0  0  0  0  0  0  0  0  0  0
   18.9290   -5.6420   14.9640 C   0  0  0  0  0  0  0  0  0  0  0  0
   18.1210   -6.7900   15.0700 C   0  0  0  0  0  0  0  0  0  0  0  0
   16.7370   -6.7490   14.8430 C   0  0  0  0  0  0  0  0  0  0  0  0
   15.9220   -7.9430   14.9310 N   0  0  0  0  0  0  0  0  0  0  0  0
   15.8530   -8.6140   16.2300 C   0  0  0  0  0  0  0  0  0  0  0  0
   15.1360   -8.3920   13.8460 C   0  0  0  0  0  0  0  0  0  0  0  0
   14.2050   -9.1910   13.9650 O   0  0  0  0  0  0  0  0  0  0  0  0
   15.5230   -7.8220   12.4600 C   0  0  0  0  0  0  0  0  0  0  0  0
   16.9510   -7.9160   12.1050 N   0  0  0  0  0  0  0  0  0  0  0  0
   17.4610   -6.7660   11.3510 C   0  0  0  0  0  0  0  0  0  0  0  0
   19.0060   -6.8070   11.1830 C   0  0  0  0  0  0  0  0  0  0  0  0
   19.6240   -8.1480   11.0660 N   0  0  0  0  0  0  0  0  0  0  0  0
   20.2110   -8.5660   12.3390 C   0  0  0  0  0  0  0  0  0  0  0  0
   18.6130   -9.1200   10.6080 C   0  0  0  0  0  0  0  0  0  0  0  0
   17.3220   -9.1910   11.4680 C   0  0  0  0  0  0  0  0  0  0  0  0
   16.2090   -5.5090   14.4730 C   0  0  0  0  0  0  0  0  0  0  0  0
   17.0180   -4.3660   14.3660 C   0  0  0  0  0  0  0  0  0  0  0  0
   21.0640   -2.4980   15.8630 C   0  0  0  0  0  0  0  0  0  0  0  0
   21.2920   -3.4890   16.8310 C   0  0  0  0  0  0  0  0  0  0  0  0
   21.8760   -3.1580   18.0550 C   0  0  0  0  0  0  0  0  0  0  0  0
   22.2360   -1.8370   18.3200 C   0  0  0  0  0  0  0  0  0  0  0  0
   22.0100   -0.8450   17.3660 C   0  0  0  0  0  0  0  0  0  0  0  0
   21.4270   -1.1730   16.1410 C   0  0  0  0  0  0  0  0  0  0  0  0
   26.0459    0.6472   12.5572 H   0  0  0  0  0  0  0  0  0  0  0  0
   26.6648    1.7571   11.2878 H   0  0  0  0  0  0  0  0  0  0  0  0
   24.9366    1.2673   11.2878 H   0  0  0  0  0  0  0  0  0  0  0  0
   25.6897   -1.1173   14.0154 H   0  0  0  0  0  0  0  0  0  0  0  0
   23.4881   -1.6680   15.0727 H   0  0  0  0  0  0  0  0  0  0  0  0
   24.1620   -2.3013   10.1236 H   0  0  0  0  0  0  0  0  0  0  0  0
   21.5760   -3.0840   10.2020 H   0  0  0  0  0  0  0  0  0  0  0  0
   18.4950   -2.3970   14.3590 H   0  0  0  0  0  0  0  0  0  0  0  0
   20.0067   -5.7235   15.1687 H   0  0  0  0  0  0  0  0  0  0  0  0
   18.5890   -7.7484   15.3390 H   0  0  0  0  0  0  0  0  0  0  0  0
   15.9299   -7.8665   17.0333 H   0  0  0  0  0  0  0  0  0  0  0  0
   14.8952   -9.1480   16.3164 H   0  0  0  0  0  0  0  0  0  0  0  0
   16.6821   -9.3318   16.3164 H   0  0  0  0  0  0  0  0  0  0  0  0
   14.9487   -8.3687   11.6976 H   0  0  0  0  0  0  0  0  0  0  0  0
   15.2957   -6.7467   12.5044 H   0  0  0  0  0  0  0  0  0  0  0  0
   16.9969   -6.7633   10.3537 H   0  0  0  0  0  0  0  0  0  0  0  0
   17.2085   -5.8559   11.9149 H   0  0  0  0  0  0  0  0  0  0  0  0
   19.2581   -6.2426   10.2731 H   0  0  0  0  0  0  0  0  0  0  0  0
   19.4107   -6.3807   12.1128 H   0  0  0  0  0  0  0  0  0  0  0  0
   19.6230   -8.1473   13.1690 H   0  0  0  0  0  0  0  0  0  0  0  0
   20.2047   -9.6641   12.4026 H   0  0  0  0  0  0  0  0  0  0  0  0
   21.2467   -8.2009   12.4026 H   0  0  0  0  0  0  0  0  0  0  0  0
   18.3231   -8.8504    9.5817 H   0  0  0  0  0  0  0  0  0  0  0  0
   19.0857  -10.1101   10.6873 H   0  0  0  0  0  0  0  0  0  0  0  0
   16.4919   -9.5069   10.8190 H   0  0  0  0  0  0  0  0  0  0  0  0
   17.5222   -9.9045   12.2810 H   0  0  0  0  0  0  0  0  0  0  0  0
   15.1329   -5.4262   14.2603 H   0  0  0  0  0  0  0  0  0  0  0  0
   16.5546   -3.4089   14.0846 H   0  0  0  0  0  0  0  0  0  0  0  0
   21.0090   -4.5316   16.6239 H   0  0  0  0  0  0  0  0  0  0  0  0
   22.0521   -3.9385   18.8098 H   0  0  0  0  0  0  0  0  0  0  0  0
   22.6991   -1.5769   19.2833 H   0  0  0  0  0  0  0  0  0  0  0  0
   22.2915    0.1968   17.5792 H   0  0  0  0  0  0  0  0  0  0  0  0
   21.2516   -0.3882   15.3904 H   0  0  0  0  0  0  0  0  0  0  0  0
  1  2  1  0
  2  3  1  0
  3  4  2  0
  3  5  1  0
  5  6  1  0
  6  7  2  0
  7  8  1  0
  8  9  2  0
  9 10  1  0
  9 11  1  0
 11 12  1  0
 12 13  2  0
 12 14  1  0
 14 15  2  0
 15 16  1  0
 16 17  1  0
 17 18  1  0
 18 19  2  0
 19 20  1  0
 20 21  1  0
 21 22  1  0
 21 23  1  0
 23 24  2  0
 23 25  1  0
 25 26  1  0
 26 27  1  0
 27 28  1  0
 28 29  1  0
 29 30  1  0
 29 31  1  0
 31 32  1  0
 20 33  2  0
 33 34  1  0
 15 35  1  0
 35 36  2  0
 36 37  1  0
 37 38  2  0
 38 39  1  0
 39 40  2  0
 10  5  2  0
 34 17  2  0
 40 35  1  0
 14  8  1  0
 32 26  1  0
  1 41  1  0
  1 42  1  0
  1 43  1  0
  6 44  1  0
  7 45  1  0
 10 46  1  0
 11 47  1  0
 16 48  1  0
 18 49  1  0
 19 50  1  0
 22 51  1  0
 22 52  1  0
 22 53  1  0
 25 54  1  0
 25 55  1  0
 27 56  1  0
 27 57  1  0
 28 58  1  0
 28 59  1  0
 30 60  1  0
 30 61  1  0
 30 62  1  0
 31 63  1  0
 31 64  1  0
 32 65  1  0
 32 66  1  0
 33 67  1  0
 34 68  1  0
 36 69  1  0
 37 70  1  0
 38 71  1  0
 39 72  1  0
 40 73  1  0
M  END
>  <meeko>  (4) 
{"is_sidechain": false}

>  <vina_affinity_kcal_mol>  (4) 
-4.398

>  <pose_rank>  (4) 
4

$$$$

     RDKit          3D

 73 77  0  0  0  0  0  0  0  0999 V2000
   26.2080    1.6580   10.9920 C   0  0  0  0  0  0  0  0  0  0  0  0
   25.6840    1.1100   12.2030 O   0  0  0  0  0  0  0  0  0  0  0  0
   24.3750    1.3930   12.4140 C   0  0  0  0  0  0  0  0  0  0  0  0
   23.7990    2.4130   12.0730 O   0  0  0  0  0  0  0  0  0  0  0  0
   23.7030    0.2780   13.1350 C   0  0  0  0  0  0  0  0  0  0  0  0
   23.3050    0.3820   14.4850 C   0  0  0  0  0  0  0  0  0  0  0  0
   22.6720   -0.6860   15.1400 C   0  0  0  0  0  0  0  0  0  0  0  0
   22.4480   -1.8610   14.4420 C   0  0  0  0  0  0  0  0  0  0  0  0
   22.8320   -1.9380   13.0960 C   0  0  0  0  0  0  0  0  0  0  0  0
   23.4570   -0.9040   12.4250 C   0  0  0  0  0  0  0  0  0  0  0  0
   22.4810   -3.1660   12.5500 N   0  0  0  0  0  0  0  0  0  0  0  0
   21.8410   -3.9630   13.4790 C   0  0  0  0  0  0  0  0  0  0  0  0
   21.3850   -5.0780   13.2970 O   0  0  0  0  0  0  0  0  0  0  0  0
   21.8220   -3.1600   14.7620 C   0  0  0  0  0  0  0  0  0  0  0  0
   21.2990   -3.6930   15.8950 C   0  0  0  0  0  0  0  0  0  0  0  0
   20.6860   -4.9430   15.9260 N   0  0  0  0  0  0  0  0  0  0  0  0
   19.3590   -5.4020   15.9110 C   0  0  0  0  0  0  0  0  0  0  0  0
   18.7630   -6.1940   16.8870 C   0  0  0  0  0  0  0  0  0  0  0  0
   17.4070   -6.5640   16.8090 C   0  0  0  0  0  0  0  0  0  0  0  0
   16.5790   -6.1400   15.7590 C   0  0  0  0  0  0  0  0  0  0  0  0
   15.1920   -6.5490   15.6780 N   0  0  0  0  0  0  0  0  0  0  0  0
   14.2010   -5.5110   15.3910 C   0  0  0  0  0  0  0  0  0  0  0  0
   14.8070   -7.9060   15.7660 C   0  0  0  0  0  0  0  0  0  0  0  0
   14.8160   -8.5500   16.8170 O   0  0  0  0  0  0  0  0  0  0  0  0
   14.3690   -8.5630   14.4340 C   0  0  0  0  0  0  0  0  0  0  0  0
   15.3920   -8.6040   13.3730 N   0  0  0  0  0  0  0  0  0  0  0  0
   16.7450   -8.9030   13.8540 C   0  0  0  0  0  0  0  0  0  0  0  0
   17.7460   -9.1440   12.6890 C   0  0  0  0  0  0  0  0  0  0  0  0
   17.5170   -8.3710   11.4470 N   0  0  0  0  0  0  0  0  0  0  0  0
   16.8510   -9.1920   10.4360 C   0  0  0  0  0  0  0  0  0  0  0  0
   16.7200   -7.1670   11.7550 C   0  0  0  0  0  0  0  0  0  0  0  0
   15.3770   -7.4280   12.4870 C   0  0  0  0  0  0  0  0  0  0  0  0
   17.1840   -5.3550   14.7730 C   0  0  0  0  0  0  0  0  0  0  0  0
   18.5380   -4.9890   14.8540 C   0  0  0  0  0  0  0  0  0  0  0  0
   21.3130   -2.8770   17.1250 C   0  0  0  0  0  0  0  0  0  0  0  0
   22.4310   -2.8860   17.9750 C   0  0  0  0  0  0  0  0  0  0  0  0
   22.4440   -2.1040   19.1310 C   0  0  0  0  0  0  0  0  0  0  0  0
   21.3430   -1.3080   19.4460 C   0  0  0  0  0  0  0  0  0  0  0  0
   20.2260   -1.2950   18.6100 C   0  0  0  0  0  0  0  0  0  0  0  0
   20.2110   -2.0750   17.4530 C   0  0  0  0  0  0  0  0  0  0  0  0
   26.9500    2.4339   11.2316 H   0  0  0  0  0  0  0  0  0  0  0  0
   26.6879    0.8603   10.4060 H   0  0  0  0  0  0  0  0  0  0  0  0
   25.3896    2.1017   10.4060 H   0  0  0  0  0  0  0  0  0  0  0  0
   23.4942    1.3165   15.0336 H   0  0  0  0  0  0  0  0  0  0  0  0
   22.3591   -0.5912   16.1903 H   0  0  0  0  0  0  0  0  0  0  0  0
   23.7511   -1.0058   11.3699 H   0  0  0  0  0  0  0  0  0  0  0  0
   22.6290   -3.4540   11.5950 H   0  0  0  0  0  0  0  0  0  0  0  0
   21.3600   -5.7130   16.0120 H   0  0  0  0  0  0  0  0  0  0  0  0
   19.3656   -6.5394   17.7400 H   0  0  0  0  0  0  0  0  0  0  0  0
   16.9835   -7.2055   17.5958 H   0  0  0  0  0  0  0  0  0  0  0  0
   13.8123   -5.1038   16.3361 H   0  0  0  0  0  0  0  0  0  0  0  0
   14.6726   -4.7043   14.8106 H   0  0  0  0  0  0  0  0  0  0  0  0
   13.3733   -5.9447   14.8106 H   0  0  0  0  0  0  0  0  0  0  0  0
   14.0663   -9.5979   14.6514 H   0  0  0  0  0  0  0  0  0  0  0  0
   13.5569   -7.9328   14.0424 H   0  0  0  0  0  0  0  0  0  0  0  0
   17.1015   -8.0548   14.4569 H   0  0  0  0  0  0  0  0  0  0  0  0
   16.6938   -9.8262   14.4498 H   0  0  0  0  0  0  0  0  0  0  0  0
   18.7522   -8.8943   13.0567 H   0  0  0  0  0  0  0  0  0  0  0  0
   17.6105  -10.1977   12.4037 H   0  0  0  0  0  0  0  0  0  0  0  0
   16.2325   -9.9545   10.9321 H   0  0  0  0  0  0  0  0  0  0  0  0
   16.2123   -8.5536    9.8078 H   0  0  0  0  0  0  0  0  0  0  0  0
   17.6073   -9.6853    9.8078 H   0  0  0  0  0  0  0  0  0  0  0  0
   17.3308   -6.5090   12.3906 H   0  0  0  0  0  0  0  0  0  0  0  0
   16.4551   -6.7221   10.7845 H   0  0  0  0  0  0  0  0  0  0  0  0
   15.1365   -6.5422   13.0932 H   0  0  0  0  0  0  0  0  0  0  0  0
   14.6259   -7.6278   11.7086 H   0  0  0  0  0  0  0  0  0  0  0  0
   16.5862   -5.0161   13.9141 H   0  0  0  0  0  0  0  0  0  0  0  0
   18.9671   -4.3578   14.0619 H   0  0  0  0  0  0  0  0  0  0  0  0
   23.3008   -3.5126   17.7284 H   0  0  0  0  0  0  0  0  0  0  0  0
   23.3222   -2.1155   19.7933 H   0  0  0  0  0  0  0  0  0  0  0  0
   21.3553   -0.6892   20.3553 H   0  0  0  0  0  0  0  0  0  0  0  0
   19.3570   -0.6698   18.8630 H   0  0  0  0  0  0  0  0  0  0  0  0
   19.3298   -2.0605   16.7948 H   0  0  0  0  0  0  0  0  0  0  0  0
  1  2  1  0
  2  3  1  0
  3  4  2  0
  3  5  1  0
  5  6  1  0
  6  7  2  0
  7  8  1  0
  8  9  2  0
  9 10  1  0
  9 11  1  0
 11 12  1  0
 12 13  2  0
 12 14  1  0
 14 15  2  0
 15 16  1  0
 16 17  1  0
 17 18  1  0
 18 19  2  0
 19 20  1  0
 20 21  1  0
 21 22  1  0
 21 23  1  0
 23 24  2  0
 23 25  1  0
 25 26  1  0
 26 27  1  0
 27 28  1  0
 28 29  1  0
 29 30  1  0
 29 31  1  0
 31 32  1  0
 20 33  2  0
 33 34  1  0
 15 35  1  0
 35 36  2  0
 36 37  1  0
 37 38  2  0
 38 39  1  0
 39 40  2  0
 10  5  2  0
 34 17  2  0
 40 35  1  0
 14  8  1  0
 32 26  1  0
  1 41  1  0
  1 42  1  0
  1 43  1  0
  6 44  1  0
  7 45  1  0
 10 46  1  0
 11 47  1  0
 16 48  1  0
 18 49  1  0
 19 50  1  0
 22 51  1  0
 22 52  1  0
 22 53  1  0
 25 54  1  0
 25 55  1  0
 27 56  1  0
 27 57  1  0
 28 58  1  0
 28 59  1  0
 30 60  1  0
 30 61  1  0
 30 62  1  0
 31 63  1  0
 31 64  1  0
 32 65  1  0
 32 66  1  0
 33 67  1  0
 34 68  1  0
 36 69  1  0
 37 70  1  0
 38 71  1  0
 39 72  1  0
 40 73  1  0
M  END
>  <meeko>  (5) 
{"is_sidechain": false}

>  <vina_affinity_kcal_mol>  (5) 
-4.259

>  <pose_rank>  (5) 
5

$$$$

     RDKit          3D

 73 77  0  0  0  0  0  0  0  0999 V2000
   23.5360   -0.7820   21.9360 C   0  0  0  0  0  0  0  0  0  0  0  0
   23.4530   -1.9280   21.0870 O   0  0  0  0  0  0  0  0  0  0  0  0
   22.1870   -2.3600   20.8680 C   0  0  0  0  0  0  0  0  0  0  0  0
   21.3690   -2.6460   21.7280 O   0  0  0  0  0  0  0  0  0  0  0  0
   21.9040   -2.4480   19.4100 C   0  0  0  0  0  0  0  0  0  0  0  0
   22.7580   -1.8830   18.4390 C   0  0  0  0  0  0  0  0  0  0  0  0
   22.4670   -1.9810   17.0690 C   0  0  0  0  0  0  0  0  0  0  0  0
   21.3130   -2.6380   16.6770 C   0  0  0  0  0  0  0  0  0  0  0  0
   20.4870   -3.2090   17.6540 C   0  0  0  0  0  0  0  0  0  0  0  0
   20.7480   -3.1290   19.0090 C   0  0  0  0  0  0  0  0  0  0  0  0
   19.4110   -3.8680   17.0710 N   0  0  0  0  0  0  0  0  0  0  0  0
   19.4610   -3.7860   15.6930 C   0  0  0  0  0  0  0  0  0  0  0  0
   18.6820   -4.2880   14.9020 O   0  0  0  0  0  0  0  0  0  0  0  0
   20.6840   -2.9520   15.3770 C   0  0  0  0  0  0  0  0  0  0  0  0
   20.9870   -2.6420   14.0910 C   0  0  0  0  0  0  0  0  0  0  0  0
   20.2610   -3.1320   13.0080 N   0  0  0  0  0  0  0  0  0  0  0  0
   19.8440   -4.4030   12.5810 C   0  0  0  0  0  0  0  0  0  0  0  0
   18.5690   -4.7310   12.1340 C   0  0  0  0  0  0  0  0  0  0  0  0
   18.2580   -6.0260   11.6780 C   0  0  0  0  0  0  0  0  0  0  0  0
   19.2180   -7.0480   11.6290 C   0  0  0  0  0  0  0  0  0  0  0  0
   18.8780   -8.3830   11.1800 N   0  0  0  0  0  0  0  0  0  0  0  0
   19.9540   -9.1920   10.6060 C   0  0  0  0  0  0  0  0  0  0  0  0
   17.5920   -8.9330   11.3790 C   0  0  0  0  0  0  0  0  0  0  0  0
   16.8130   -9.1920   10.4590 O   0  0  0  0  0  0  0  0  0  0  0  0
   17.1960   -9.1920   12.8530 C   0  0  0  0  0  0  0  0  0  0  0  0
   16.4270   -8.1180   13.5080 N   0  0  0  0  0  0  0  0  0  0  0  0
   15.8870   -8.4790   14.8230 C   0  0  0  0  0  0  0  0  0  0  0  0
   15.2700   -7.2610   15.5640 C   0  0  0  0  0  0  0  0  0  0  0  0
   14.6280   -6.2270   14.7190 N   0  0  0  0  0  0  0  0  0  0  0  0
   15.5170   -5.0800   14.5310 C   0  0  0  0  0  0  0  0  0  0  0  0
   14.2480   -6.8170   13.4210 C   0  0  0  0  0  0  0  0  0  0  0  0
   15.3970   -7.5140   12.6450 C   0  0  0  0  0  0  0  0  0  0  0  0
   20.4960   -6.7180   12.0900 C   0  0  0  0  0  0  0  0  0  0  0  0
   20.8020   -5.4250   12.5460 C   0  0  0  0  0  0  0  0  0  0  0  0
   22.1830   -1.8160   13.8320 C   0  0  0  0  0  0  0  0  0  0  0  0
   23.1380   -2.2210   12.8860 C   0  0  0  0  0  0  0  0  0  0  0  0
   24.2620   -1.4310   12.6360 C   0  0  0  0  0  0  0  0  0  0  0  0
   24.4380   -0.2320   13.3280 C   0  0  0  0  0  0  0  0  0  0  0  0
   23.4950    0.1770   14.2720 C   0  0  0  0  0  0  0  0  0  0  0  0
   22.3710   -0.6110   14.5230 C   0  0  0  0  0  0  0  0  0  0  0  0
   23.5128   -1.1026   22.9880 H   0  0  0  0  0  0  0  0  0  0  0  0
   24.4754   -0.2454   21.7369 H   0  0  0  0  0  0  0  0  0  0  0  0
   22.6838   -0.1156   21.7369 H   0  0  0  0  0  0  0  0  0  0  0  0
   23.6683   -1.3562   18.7613 H   0  0  0  0  0  0  0  0  0  0  0  0
   23.1438   -1.5436   16.3203 H   0  0  0  0  0  0  0  0  0  0  0  0
   20.0711   -3.5845   19.7468 H   0  0  0  0  0  0  0  0  0  0  0  0
   18.6920   -4.3760   17.5610 H   0  0  0  0  0  0  0  0  0  0  0  0
   19.9940   -2.3950   12.3450 H   0  0  0  0  0  0  0  0  0  0  0  0
   17.7844   -3.9600   12.1367 H   0  0  0  0  0  0  0  0  0  0  0  0
   17.2308   -6.2433   11.3500 H   0  0  0  0  0  0  0  0  0  0  0  0
   20.5487   -9.6391   11.4162 H   0  0  0  0  0  0  0  0  0  0  0  0
   19.5213   -9.9903    9.9852 H   0  0  0  0  0  0  0  0  0  0  0  0
   20.6008   -8.5546    9.9852 H   0  0  0  0  0  0  0  0  0  0  0  0
   16.5890  -10.1088   12.8835 H   0  0  0  0  0  0  0  0  0  0  0  0
   18.1425   -9.2641   13.4089 H   0  0  0  0  0  0  0  0  0  0  0  0
   15.1067   -9.2423   14.6871 H   0  0  0  0  0  0  0  0  0  0  0  0
   16.7189   -8.8579   15.4349 H   0  0  0  0  0  0  0  0  0  0  0  0
   14.5086   -7.6439   16.2594 H   0  0  0  0  0  0  0  0  0  0  0  0
   16.1186   -6.7550   16.0476 H   0  0  0  0  0  0  0  0  0  0  0  0
   15.8214   -4.6873   15.5124 H   0  0  0  0  0  0  0  0  0  0  0  0
   16.4088   -5.3955   13.9696 H   0  0  0  0  0  0  0  0  0  0  0  0
   14.9891   -4.2950   13.9696 H   0  0  0  0  0  0  0  0  0  0  0  0
   13.4610   -7.5633   13.6048 H   0  0  0  0  0  0  0  0  0  0  0  0
   13.9219   -5.9770   12.7900 H   0  0  0  0  0  0  0  0  0  0  0  0
   14.9604   -8.3078   12.0211 H   0  0  0  0  0  0  0  0  0  0  0  0
   15.8977   -6.7342   12.0524 H   0  0  0  0  0  0  0  0  0  0  0  0
   21.2805   -7.4891   12.0958 H   0  0  0  0  0  0  0  0  0  0  0  0
   21.8254   -5.2081   12.8861 H   0  0  0  0  0  0  0  0  0  0  0  0
   23.0002   -3.1653   12.3390 H   0  0  0  0  0  0  0  0  0  0  0  0
   25.0078   -1.7534   11.8945 H   0  0  0  0  0  0  0  0  0  0  0  0
   25.3218    0.3920   13.1290 H   0  0  0  0  0  0  0  0  0  0  0  0
   23.6378    1.1209   14.8184 H   0  0  0  0  0  0  0  0  0  0  0  0
   21.6290   -0.2850   15.2667 H   0  0  0  0  0  0  0  0  0  0  0  0
  1  2  1  0
  2  3  1  0
  3  4  2  0
  3  5  1  0
  5  6  1  0
  6  7  2  0
  7  8  1  0
  8  9  2  0
  9 10  1  0
  9 11  1  0
 11 12  1  0
 12 13  2  0
 12 14  1  0
 14 15  2  0
 15 16  1  0
 16 17  1  0
 17 18  1  0
 18 19  2  0
 19 20  1  0
 20 21  1  0
 21 22  1  0
 21 23  1  0
 23 24  2  0
 23 25  1  0
 25 26  1  0
 26 27  1  0
 27 28  1  0
 28 29  1  0
 29 30  1  0
 29 31  1  0
 31 32  1  0
 20 33  2  0
 33 34  1  0
 15 35  1  0
 35 36  2  0
 36 37  1  0
 37 38  2  0
 38 39  1  0
 39 40  2  0
 10  5  2  0
 34 17  2  0
 40 35  1  0
 14  8  1  0
 32 26  1  0
  1 41  1  0
  1 42  1  0
  1 43  1  0
  6 44  1  0
  7 45  1  0
 10 46  1  0
 11 47  1  0
 16 48  1  0
 18 49  1  0
 19 50  1  0
 22 51  1  0
 22 52  1  0
 22 53  1  0
 25 54  1  0
 25 55  1  0
 27 56  1  0
 27 57  1  0
 28 58  1  0
 28 59  1  0
 30 60  1  0
 30 61  1  0
 30 62  1  0
 31 63  1  0
 31 64  1  0
 32 65  1  0
 32 66  1  0
 33 67  1  0
 34 68  1  0
 36 69  1  0
 37 70  1  0
 38 71  1  0
 39 72  1  0
 40 73  1  0
M  END
>  <meeko>  (6) 
{"is_sidechain": false}

>  <vina_affinity_kcal_mol>  (6) 
-3.166

>  <pose_rank>  (6) 
6

$$$$

     RDKit          3D

 73 77  0  0  0  0  0  0  0  0999 V2000
   14.3240   -4.0760   12.6550 C   0  0  0  0  0  0  0  0  0  0  0  0
   15.0590   -5.2780   12.4160 O   0  0  0  0  0  0  0  0  0  0  0  0
   16.3300   -5.0710   11.9920 C   0  0  0  0  0  0  0  0  0  0  0  0
   16.7160   -5.1180   10.8350 O   0  0  0  0  0  0  0  0  0  0  0  0
   17.2280   -4.7690   13.1400 C   0  0  0  0  0  0  0  0  0  0  0  0
   18.2800   -3.8330   13.0500 C   0  0  0  0  0  0  0  0  0  0  0  0
   19.1110   -3.5670   14.1500 C   0  0  0  0  0  0  0  0  0  0  0  0
   18.8910   -4.2480   15.3350 C   0  0  0  0  0  0  0  0  0  0  0  0
   17.8290   -5.1590   15.4100 C   0  0  0  0  0  0  0  0  0  0  0  0
   16.9940   -5.4420   14.3460 C   0  0  0  0  0  0  0  0  0  0  0  0
   17.7310   -5.7010   16.6860 N   0  0  0  0  0  0  0  0  0  0  0  0
   18.6980   -5.1850   17.5260 C   0  0  0  0  0  0  0  0  0  0  0  0
   18.8520   -5.4370   18.7080 O   0  0  0  0  0  0  0  0  0  0  0  0
   19.5180   -4.2400   16.6730 C   0  0  0  0  0  0  0  0  0  0  0  0
   20.5930   -3.6020   17.1990 C   0  0  0  0  0  0  0  0  0  0  0  0
   20.9470   -3.7050   18.5420 N   0  0  0  0  0  0  0  0  0  0  0  0
   21.6720   -2.9110   19.4450 C   0  0  0  0  0  0  0  0  0  0  0  0
   23.0530   -2.7470   19.4540 C   0  0  0  0  0  0  0  0  0  0  0  0
   23.6880   -1.8880   20.3710 C   0  0  0  0  0  0  0  0  0  0  0  0
   22.9650   -1.1360   21.3100 C   0  0  0  0  0  0  0  0  0  0  0  0
   23.6320   -0.2750   22.2640 N   0  0  0  0  0  0  0  0  0  0  0  0
   22.8520    0.1830   23.4150 C   0  0  0  0  0  0  0  0  0  0  0  0
   25.0070    0.0330   22.1580 C   0  0  0  0  0  0  0  0  0  0  0  0
   25.9060   -0.7630   22.4370 O   0  0  0  0  0  0  0  0  0  0  0  0
   25.3350    1.4650   21.6690 C   0  0  0  0  0  0  0  0  0  0  0  0
   26.0090    2.3370   22.6490 N   0  0  0  0  0  0  0  0  0  0  0  0
   26.9960    3.2500   22.0640 C   0  0  0  0  0  0  0  0  0  0  0  0
   27.5240    4.2890   23.0920 C   0  0  0  0  0  0  0  0  0  0  0  0
   27.6230    3.8360   24.4990 N   0  0  0  0  0  0  0  0  0  0  0  0
   26.4870    4.3190   25.2850 C   0  0  0  0  0  0  0  0  0  0  0  0
   27.7040    2.3640   24.5400 C   0  0  0  0  0  0  0  0  0  0  0  0
   26.5570    1.6150   23.8090 C   0  0  0  0  0  0  0  0  0  0  0  0
   21.5780   -1.3130   21.3060 C   0  0  0  0  0  0  0  0  0  0  0  0
   20.9480   -2.1720   20.3900 C   0  0  0  0  0  0  0  0  0  0  0  0
   21.3690   -2.6990   16.3260 C   0  0  0  0  0  0  0  0  0  0  0  0
   22.1320   -3.2140   15.2660 C   0  0  0  0  0  0  0  0  0  0  0  0
   22.8560   -2.3560   14.4350 C   0  0  0  0  0  0  0  0  0  0  0  0
   22.8220   -0.9790   14.6580 C   0  0  0  0  0  0  0  0  0  0  0  0
   22.0690   -0.4580   15.7110 C   0  0  0  0  0  0  0  0  0  0  0  0
   21.3450   -1.3140   16.5420 C   0  0  0  0  0  0  0  0  0  0  0  0
   14.2259   -3.9156   13.7388 H   0  0  0  0  0  0  0  0  0  0  0  0
   14.8564   -3.2251   12.2051 H   0  0  0  0  0  0  0  0  0  0  0  0
   13.3239   -4.1621   12.2051 H   0  0  0  0  0  0  0  0  0  0  0  0
   18.4520   -3.3026   12.1018 H   0  0  0  0  0  0  0  0  0  0  0  0
   19.9235   -2.8296   14.0715 H   0  0  0  0  0  0  0  0  0  0  0  0
   16.1748   -6.1698   14.4426 H   0  0  0  0  0  0  0  0  0  0  0  0
   17.0360   -6.3620   16.9970 H   0  0  0  0  0  0  0  0  0  0  0  0
   20.6320   -4.5850   18.9670 H   0  0  0  0  0  0  0  0  0  0  0  0
   23.6640   -3.3020   18.7269 H   0  0  0  0  0  0  0  0  0  0  0  0
   24.7846   -1.8036   20.3510 H   0  0  0  0  0  0  0  0  0  0  0  0
   23.3598   -0.1152   24.3441 H   0  0  0  0  0  0  0  0  0  0  0  0
   22.7598    1.2787   23.3829 H   0  0  0  0  0  0  0  0  0  0  0  0
   21.8503   -0.2703   23.3829 H   0  0  0  0  0  0  0  0  0  0  0  0
   25.9874    1.3799   20.7875 H   0  0  0  0  0  0  0  0  0  0  0  0
   24.3650    1.9406   21.4620 H   0  0  0  0  0  0  0  0  0  0  0  0
   27.8456    2.6596   21.6903 H   0  0  0  0  0  0  0  0  0  0  0  0
   26.5014    3.8031   21.2519 H   0  0  0  0  0  0  0  0  0  0  0  0
   28.5292    4.5976   22.7689 H   0  0  0  0  0  0  0  0  0  0  0  0
   26.7776    5.0970   23.0984 H   0  0  0  0  0  0  0  0  0  0  0  0
   26.7150    4.2221   26.3567 H   0  0  0  0  0  0  0  0  0  0  0  0
   26.2975    5.3755   25.0445 H   0  0  0  0  0  0  0  0  0  0  0  0
   25.5946    3.7225   25.0445 H   0  0  0  0  0  0  0  0  0  0  0  0
   28.6554    2.0631   24.0770 H   0  0  0  0  0  0  0  0  0  0  0  0
   27.6218    2.0846   25.6007 H   0  0  0  0  0  0  0  0  0  0  0  0
   26.9443    0.6461   23.4609 H   0  0  0  0  0  0  0  0  0  0  0  0
   25.7357    1.5099   24.5332 H   0  0  0  0  0  0  0  0  0  0  0  0
   20.9652   -0.7664   22.0379 H   0  0  0  0  0  0  0  0  0  0  0  0
   19.8524   -2.2674   20.4155 H   0  0  0  0  0  0  0  0  0  0  0  0
   22.1598   -4.2993   15.0889 H   0  0  0  0  0  0  0  0  0  0  0  0
   23.4521   -2.7652   13.6060 H   0  0  0  0  0  0  0  0  0  0  0  0
   23.3900   -0.3027   14.0023 H   0  0  0  0  0  0  0  0  0  0  0  0
   22.0461    0.6277   15.8861 H   0  0  0  0  0  0  0  0  0  0  0  0
   20.7523   -0.8998   17.3709 H   0  0  0  0  0  0  0  0  0  0  0  0
  1  2  1  0
  2  3  1  0
  3  4  2  0
  3  5  1  0
  5  6  1  0
  6  7  2  0
  7  8  1  0
  8  9  2  0
  9 10  1  0
  9 11  1  0
 11 12  1  0
 12 13  2  0
 12 14  1  0
 14 15  2  0
 15 16  1  0
 16 17  1  0
 17 18  1  0
 18 19  2  0
 19 20  1  0
 20 21  1  0
 21 22  1  0
 21 23  1  0
 23 24  2  0
 23 25  1  0
 25 26  1  0
 26 27  1  0
 27 28  1  0
 28 29  1  0
 29 30  1  0
 29 31  1  0
 31 32  1  0
 20 33  2  0
 33 34  1  0
 15 35  1  0
 35 36  2  0
 36 37  1  0
 37 38  2  0
 38 39  1  0
 39 40  2  0
 10  5  2  0
 34 17  2  0
 40 35  1  0
 14  8  1  0
 32 26  1  0
  1 41  1  0
  1 42  1  0
  1 43  1  0
  6 44  1  0
  7 45  1  0
 10 46  1  0
 11 47  1  0
 16 48  1  0
 18 49  1  0
 19 50  1  0
 22 51  1  0
 22 52  1  0
 22 53  1  0
 25 54  1  0
 25 55  1  0
 27 56  1  0
 27 57  1  0
 28 58  1  0
 28 59  1  0
 30 60  1  0
 30 61  1  0
 30 62  1  0
 31 63  1  0
 31 64  1  0
 32 65  1  0
 32 66  1  0
 33 67  1  0
 34 68  1  0
 36 69  1  0
 37 70  1  0
 38 71  1  0
 39 72  1  0
 40 73  1  0
M  END
>  <meeko>  (7) 
{"is_sidechain": false}

>  <vina_affinity_kcal_mol>  (7) 
-2.572

>  <pose_rank>  (7) 
7

$$$$

     RDKit          3D

 73 77  0  0  0  0  0  0  0  0999 V2000
   25.4210   -0.0670   22.1380 C   0  0  0  0  0  0  0  0  0  0  0  0
   24.3890   -1.0310   22.3520 O   0  0  0  0  0  0  0  0  0  0  0  0
   23.1430   -0.5750   22.0750 C   0  0  0  0  0  0  0  0  0  0  0  0
   22.5430    0.2910   22.6920 O   0  0  0  0  0  0  0  0  0  0  0  0
   22.5750   -1.2760   20.8920 C   0  0  0  0  0  0  0  0  0  0  0  0
   22.9780   -0.9790   19.5720 C   0  0  0  0  0  0  0  0  0  0  0  0
   22.4260   -1.6570   18.4740 C   0  0  0  0  0  0  0  0  0  0  0  0
   21.4620   -2.6250   18.7010 C   0  0  0  0  0  0  0  0  0  0  0  0
   21.0890   -2.9190   20.0200 C   0  0  0  0  0  0  0  0  0  0  0  0
   21.6150   -2.2700   21.1200 C   0  0  0  0  0  0  0  0  0  0  0  0
   20.1550   -3.9480   20.0520 N   0  0  0  0  0  0  0  0  0  0  0  0
   19.8650   -4.4010   18.7810 C   0  0  0  0  0  0  0  0  0  0  0  0
   19.1120   -5.3120   18.4820 O   0  0  0  0  0  0  0  0  0  0  0  0
   20.6780   -3.5360   17.8420 C   0  0  0  0  0  0  0  0  0  0  0  0
   20.5740   -3.6980   16.4990 C   0  0  0  0  0  0  0  0  0  0  0  0
   19.8010   -4.7010   15.9200 N   0  0  0  0  0  0  0  0  0  0  0  0
   18.6980   -4.7330   15.0510 C   0  0  0  0  0  0  0  0  0  0  0  0
   18.4120   -3.7930   14.0680 C   0  0  0  0  0  0  0  0  0  0  0  0
   17.3050   -3.9360   13.2090 C   0  0  0  0  0  0  0  0  0  0  0  0
   16.4450   -5.0410   13.2830 C   0  0  0  0  0  0  0  0  0  0  0  0
   15.2950   -5.1640   12.4110 N   0  0  0  0  0  0  0  0  0  0  0  0
   14.3770   -4.0260   12.3460 C   0  0  0  0  0  0  0  0  0  0  0  0
   15.1110   -6.2860   11.5720 C   0  0  0  0  0  0  0  0  0  0  0  0
   14.1970   -7.1010   11.7160 O   0  0  0  0  0  0  0  0  0  0  0  0
   16.1500   -6.4480   10.4360 C   0  0  0  0  0  0  0  0  0  0  0  0
   17.3600   -7.2180   10.7800 N   0  0  0  0  0  0  0  0  0  0  0  0
   17.1710   -8.1820   11.8680 C   0  0  0  0  0  0  0  0  0  0  0  0
   18.4010   -9.1130   12.0540 C   0  0  0  0  0  0  0  0  0  0  0  0
   19.7280   -8.5230   11.7620 N   0  0  0  0  0  0  0  0  0  0  0  0
   20.2000   -8.9270   10.4370 C   0  0  0  0  0  0  0  0  0  0  0  0
   19.6500   -7.0540   11.8670 C   0  0  0  0  0  0  0  0  0  0  0  0
   18.5540   -6.3830   10.9950 C   0  0  0  0  0  0  0  0  0  0  0  0
   16.7280   -5.9790   14.2820 C   0  0  0  0  0  0  0  0  0  0  0  0
   17.8320   -5.8310   15.1370 C   0  0  0  0  0  0  0  0  0  0  0  0
   21.3780   -2.8230   15.6230 C   0  0  0  0  0  0  0  0  0  0  0  0
   21.3230   -1.4270   15.7640 C   0  0  0  0  0  0  0  0  0  0  0  0
   22.0940   -0.6050   14.9400 C   0  0  0  0  0  0  0  0  0  0  0  0
   22.9240   -1.1690   13.9720 C   0  0  0  0  0  0  0  0  0  0  0  0
   22.9830   -2.5550   13.8220 C   0  0  0  0  0  0  0  0  0  0  0  0
   22.2130   -3.3800   14.6440 C   0  0  0  0  0  0  0  0  0  0  0  0
   25.7995    0.2865   23.1085 H   0  0  0  0  0  0  0  0  0  0  0  0
   26.2422   -0.5289   21.5704 H   0  0  0  0  0  0  0  0  0  0  0  0
   25.0161    0.7838   21.5704 H   0  0  0  0  0  0  0  0  0  0  0  0
   23.7381   -0.2025   19.4010 H   0  0  0  0  0  0  0  0  0  0  0  0
   22.7536   -1.4234   17.4502 H   0  0  0  0  0  0  0  0  0  0  0  0
   21.2911   -2.5250   22.1398 H   0  0  0  0  0  0  0  0  0  0  0  0
   19.7510   -4.3540   20.8820 H   0  0  0  0  0  0  0  0  0  0  0  0
   20.0810   -5.6420   16.2230 H   0  0  0  0  0  0  0  0  0  0  0  0
   19.0664   -2.9157   13.9582 H   0  0  0  0  0  0  0  0  0  0  0  0
   17.1092   -3.1572   12.4573 H   0  0  0  0  0  0  0  0  0  0  0  0
   14.1181   -3.7050   13.3658 H   0  0  0  0  0  0  0  0  0  0  0  0
   14.8605   -3.1949   11.8117 H   0  0  0  0  0  0  0  0  0  0  0  0
   13.4624   -4.3227   11.8117 H   0  0  0  0  0  0  0  0  0  0  0  0
   15.6546   -6.9551    9.5949 H   0  0  0  0  0  0  0  0  0  0  0  0
   16.4985   -5.4313   10.2017 H   0  0  0  0  0  0  0  0  0  0  0  0
   17.0012   -7.6297   12.8040 H   0  0  0  0  0  0  0  0  0  0  0  0
   16.3079   -8.8135   11.6107 H   0  0  0  0  0  0  0  0  0  0  0  0
   18.4088   -9.4510   13.1008 H   0  0  0  0  0  0  0  0  0  0  0  0
   18.2714   -9.9170   11.3146 H   0  0  0  0  0  0  0  0  0  0  0  0
   21.0316   -9.6388   10.5453 H   0  0  0  0  0  0  0  0  0  0  0  0
   19.3776   -9.4053    9.8849 H   0  0  0  0  0  0  0  0  0  0  0  0
   20.5456   -8.0406    9.8849 H   0  0  0  0  0  0  0  0  0  0  0  0
   19.4513   -6.7986   12.9183 H   0  0  0  0  0  0  0  0  0  0  0  0
   20.6115   -6.6712   11.4943 H   0  0  0  0  0  0  0  0  0  0  0  0
   18.2399   -5.4527   11.4909 H   0  0  0  0  0  0  0  0  0  0  0  0
   19.0003   -6.2078   10.0050 H   0  0  0  0  0  0  0  0  0  0  0  0
   16.0703   -6.8527   14.4003 H   0  0  0  0  0  0  0  0  0  0  0  0
   18.0230   -6.6015   15.8984 H   0  0  0  0  0  0  0  0  0  0  0  0
   20.6695   -0.9791   16.5271 H   0  0  0  0  0  0  0  0  0  0  0  0
   22.0466    0.4880   15.0545 H   0  0  0  0  0  0  0  0  0  0  0  0
   23.5333   -0.5203   13.3255 H   0  0  0  0  0  0  0  0  0  0  0  0
   23.6364   -2.9978   13.0558 H   0  0  0  0  0  0  0  0  0  0  0  0
   22.2616   -4.4722   14.5230 H   0  0  0  0  0  0  0  0  0  0  0  0
  1  2  1  0
  2  3  1  0
  3  4  2  0
  3  5  1  0
  5  6  1  0
  6  7  2  0
  7  8  1  0
  8  9  2  0
  9 10  1  0
  9 11  1  0
 11 12  1  0
 12 13  2  0
 12 14  1  0
 14 15  2  0
 15 16  1  0
 16 17  1  0
 17 18  1  0
 18 19  2  0
 19 20  1  0
 20 21  1  0
 21 22  1  0
 21 23  1  0
 23 24  2  0
 23 25  1  0
 25 26  1  0
 26 27  1  0
 27 28  1  0
 28 29  1  0
 29 30  1  0
 29 31  1  0
 31 32  1  0
 20 33  2  0
 33 34  1  0
 15 35  1  0
 35 36  2  0
 36 37  1  0
 37 38  2  0
 38 39  1  0
 39 40  2  0
 10  5  2  0
 34 17  2  0
 40 35  1  0
 14  8  1  0
 32 26  1  0
  1 41  1  0
  1 42  1  0
  1 43  1  0
  6 44  1  0
  7 45  1  0
 10 46  1  0
 11 47  1  0
 16 48  1  0
 18 49  1  0
 19 50  1  0
 22 51  1  0
 22 52  1  0
 22 53  1  0
 25 54  1  0
 25 55  1  0
 27 56  1  0
 27 57  1  0
 28 58  1  0
 28 59  1  0
 30 60  1  0
 30 61  1  0
 30 62  1  0
 31 63  1  0
 31 64  1  0
 32 65  1  0
 32 66  1  0
 33 67  1  0
 34 68  1  0
 36 69  1  0
 37 70  1  0
 38 71  1  0
 39 72  1  0
 40 73  1  0
M  END
>  <meeko>  (8) 
{"is_sidechain": false}

>  <vina_affinity_kcal_mol>  (8) 
-2.184

>  <pose_rank>  (8) 
8

$$$$

     RDKit          3D

 73 77  0  0  0  0  0  0  0  0999 V2000
   25.9120   -0.4050   22.6410 C   0  0  0  0  0  0  0  0  0  0  0  0
   24.9140   -1.3770   22.3240 O   0  0  0  0  0  0  0  0  0  0  0  0
   23.6630   -0.8640   22.2110 C   0  0  0  0  0  0  0  0  0  0  0  0
   23.1340   -0.0870   22.9900 O   0  0  0  0  0  0  0  0  0  0  0  0
   22.9910   -1.3770   20.9860 C   0  0  0  0  0  0  0  0  0  0  0  0
   23.3950   -0.9970   19.6880 C   0  0  0  0  0  0  0  0  0  0  0  0
   22.7440   -1.4970   18.5500 C   0  0  0  0  0  0  0  0  0  0  0  0
   21.6810   -2.3690   18.7160 C   0  0  0  0  0  0  0  0  0  0  0  0
   21.3070   -2.7480   20.0120 C   0  0  0  0  0  0  0  0  0  0  0  0
   21.9290   -2.2740   21.1510 C   0  0  0  0  0  0  0  0  0  0  0  0
   20.2620   -3.6640   19.9780 N   0  0  0  0  0  0  0  0  0  0  0  0
   19.8920   -3.9530   18.6790 C   0  0  0  0  0  0  0  0  0  0  0  0
   19.0320   -4.7400   18.3210 O   0  0  0  0  0  0  0  0  0  0  0  0
   20.7770   -3.0960   17.8010 C   0  0  0  0  0  0  0  0  0  0  0  0
   20.6250   -3.1120   16.4530 C   0  0  0  0  0  0  0  0  0  0  0  0
   19.7280   -3.9600   15.8070 N   0  0  0  0  0  0  0  0  0  0  0  0
   19.7420   -4.7030   14.6150 C   0  0  0  0  0  0  0  0  0  0  0  0
   19.6120   -4.1830   13.3330 C   0  0  0  0  0  0  0  0  0  0  0  0
   19.6880   -5.0040   12.1920 C   0  0  0  0  0  0  0  0  0  0  0  0
   19.9190   -6.3850   12.2840 C   0  0  0  0  0  0  0  0  0  0  0  0
   19.9700   -7.2230   11.1040 N   0  0  0  0  0  0  0  0  0  0  0  0
   21.2650   -7.3640   10.4360 C   0  0  0  0  0  0  0  0  0  0  0  0
   18.8500   -7.9650   10.6650 C   0  0  0  0  0  0  0  0  0  0  0  0
   18.8750   -9.1800   10.4630 O   0  0  0  0  0  0  0  0  0  0  0  0
   17.5560   -7.1460   10.4360 C   0  0  0  0  0  0  0  0  0  0  0  0
   16.8450   -6.7180   11.6550 N   0  0  0  0  0  0  0  0  0  0  0  0
   16.5330   -7.8090   12.5840 C   0  0  0  0  0  0  0  0  0  0  0  0
   15.9790   -7.2900   13.9400 C   0  0  0  0  0  0  0  0  0  0  0  0
   15.1640   -6.0540   13.8930 N   0  0  0  0  0  0  0  0  0  0  0  0
   15.9550   -4.8910   14.2950 C   0  0  0  0  0  0  0  0  0  0  0  0
   14.6170   -5.8740   12.5340 C   0  0  0  0  0  0  0  0  0  0  0  0
   15.6660   -5.8760   11.3900 C   0  0  0  0  0  0  0  0  0  0  0  0
   20.0360   -6.9070   13.5760 C   0  0  0  0  0  0  0  0  0  0  0  0
   19.9580   -6.0840   14.7110 C   0  0  0  0  0  0  0  0  0  0  0  0
   21.5030   -2.2500   15.6370 C   0  0  0  0  0  0  0  0  0  0  0  0
   22.2350   -2.7880   14.5660 C   0  0  0  0  0  0  0  0  0  0  0  0
   23.0550   -1.9660   13.7910 C   0  0  0  0  0  0  0  0  0  0  0  0
   23.1500   -0.6050   14.0790 C   0  0  0  0  0  0  0  0  0  0  0  0
   22.4290   -0.0620   15.1430 C   0  0  0  0  0  0  0  0  0  0  0  0
   21.6080   -0.8810   15.9200 C   0  0  0  0  0  0  0  0  0  0  0  0
   26.0033   -0.3161   23.7336 H   0  0  0  0  0  0  0  0  0  0  0  0
   26.8772   -0.7187   22.2167 H   0  0  0  0  0  0  0  0  0  0  0  0
   25.6239    0.5681   22.2167 H   0  0  0  0  0  0  0  0  0  0  0  0
   24.2346   -0.2968   19.5665 H   0  0  0  0  0  0  0  0  0  0  0  0
   23.0725   -1.2013   17.5427 H   0  0  0  0  0  0  0  0  0  0  0  0
   21.6013   -2.5903   22.1523 H   0  0  0  0  0  0  0  0  0  0  0  0
   19.8330   -4.1020   20.7780 H   0  0  0  0  0  0  0  0  0  0  0  0
   18.8300   -4.0360   16.3000 H   0  0  0  0  0  0  0  0  0  0  0  0
   19.4456   -3.1030   13.2066 H   0  0  0  0  0  0  0  0  0  0  0  0
   19.5625   -4.5492   11.1983 H   0  0  0  0  0  0  0  0  0  0  0  0
   22.0598   -7.4505   11.1915 H   0  0  0  0  0  0  0  0  0  0  0  0
   21.2569   -8.2666    9.8073 H   0  0  0  0  0  0  0  0  0  0  0  0
   21.4513   -6.4808    9.8073 H   0  0  0  0  0  0  0  0  0  0  0  0
   17.8236   -6.2437    9.8666 H   0  0  0  0  0  0  0  0  0  0  0  0
   16.8652   -7.8192    9.9072 H   0  0  0  0  0  0  0  0  0  0  0  0
   15.7792   -8.4629   12.1211 H   0  0  0  0  0  0  0  0  0  0  0  0
   17.4666   -8.3535   12.7887 H   0  0  0  0  0  0  0  0  0  0  0  0
   15.3543   -8.0857   14.3720 H   0  0  0  0  0  0  0  0  0  0  0  0
   16.8663   -7.0303   14.5360 H   0  0  0  0  0  0  0  0  0  0  0  0
   15.9930   -4.8352   15.3929 H   0  0  0  0  0  0  0  0  0  0  0  0
   16.9761   -4.9868   13.8972 H   0  0  0  0  0  0  0  0  0  0  0  0
   15.4908   -3.9765   13.8972 H   0  0  0  0  0  0  0  0  0  0  0  0
   13.9051   -6.6907   12.3435 H   0  0  0  0  0  0  0  0  0  0  0  0
   14.1563   -4.8752   12.5219 H   0  0  0  0  0  0  0  0  0  0  0  0
   15.1782   -6.2432   10.4750 H   0  0  0  0  0  0  0  0  0  0  0  0
   16.0303   -4.8427   11.2927 H   0  0  0  0  0  0  0  0  0  0  0  0
   20.1929   -7.9879   13.7063 H   0  0  0  0  0  0  0  0  0  0  0  0
   20.0700   -6.5377   15.7068 H   0  0  0  0  0  0  0  0  0  0  0  0
   22.1619   -3.8614   14.3369 H   0  0  0  0  0  0  0  0  0  0  0  0
   23.6263   -2.3920   12.9530 H   0  0  0  0  0  0  0  0  0  0  0  0
   23.7948    0.0420   13.4660 H   0  0  0  0  0  0  0  0  0  0  0  0
   22.5076    1.0115   15.3696 H   0  0  0  0  0  0  0  0  0  0  0  0
   21.0408   -0.4502   16.7583 H   0  0  0  0  0  0  0  0  0  0  0  0
  1  2  1  0
  2  3  1  0
  3  4  2  0
  3  5  1  0
  5  6  1  0
  6  7  2  0
  7  8  1  0
  8  9  2  0
  9 10  1  0
  9 11  1  0
 11 12  1  0
 12 13  2  0
 12 14  1  0
 14 15  2  0
 15 16  1  0
 16 17  1  0
 17 18  1  0
 18 19  2  0
 19 20  1  0
 20 21  1  0
 21 22  1  0
 21 23  1  0
 23 24  2  0
 23 25  1  0
 25 26  1  0
 26 27  1  0
 27 28  1  0
 28 29  1  0
 29 30  1  0
 29 31  1  0
 31 32  1  0
 20 33  2  0
 33 34  1  0
 15 35  1  0
 35 36  2  0
 36 37  1  0
 37 38  2  0
 38 39  1  0
 39 40  2  0
 10  5  2  0
 34 17  2  0
 40 35  1  0
 14  8  1  0
 32 26  1  0
  1 41  1  0
  1 42  1  0
  1 43  1  0
  6 44  1  0
  7 45  1  0
 10 46  1  0
 11 47  1  0
 16 48  1  0
 18 49  1  0
 19 50  1  0
 22 51  1  0
 22 52  1  0
 22 53  1  0
 25 54  1  0
 25 55  1  0
 27 56  1  0
 27 57  1  0
 28 58  1  0
 28 59  1  0
 30 60  1  0
 30 61  1  0
 30 62  1  0
 31 63  1  0
 31 64  1  0
 32 65  1  0
 32 66  1  0
 33 67  1  0
 34 68  1  0
 36 69  1  0
 37 70  1  0
 38 71  1  0
 39 72  1  0
 40 73  1  0
M  END
>  <meeko>  (9) 
{"is_sidechain": false}

>  <vina_affinity_kcal_mol>  (9) 
-2.127

>  <pose_rank>  (9) 
9

$$$$
