
     RDKit          3D

 64 69  0  0  0  0  0  0  0  0999 V2000
  -10.1798    0.9800   -2.7154 C   0  0  0  0  0  0  0  0  0  0  0  0
   -8.8671    0.8737   -2.1271 N   0  0  0  0  0  0  0  0  0  0  0  0
   -8.5578    0.3769   -0.8947 C   0  0  0  0  0  0  0  0  0  0  0  0
   -7.1909    0.4812   -0.7767 C   0  0  0  0  0  0  0  0  0  0  0  0
   -6.3504    0.0918    0.3449 C   0  0  0  0  0  0  0  0  0  0  0  0
   -4.9385    0.2157    0.4068 C   0  0  0  0  0  0  0  0  0  0  0  0
   -4.5330   -0.2822    1.6320 C   0  0  0  0  0  0  0  0  0  0  0  0
   -3.2617   -0.4309    2.2894 C   0  0  0  0  0  0  0  0  0  0  0  0
   -2.0296   -0.1503    1.7118 N   0  0  0  0  0  0  0  0  0  0  0  0
   -1.7667   -0.3685    0.2781 C   0  0  0  0  0  0  0  0  0  0  0  0
   -0.3452   -0.9009    0.0018 C   0  0  0  0  0  0  0  0  0  0  0  0
    0.6647   -0.0133    0.5757 N   0  0  0  0  0  0  0  0  0  0  0  0
    1.9867   -0.2789    0.2855 C   0  0  0  0  0  0  0  0  0  0  0  0
    2.2720   -1.1970   -0.6506 N   0  0  0  0  0  0  0  0  0  0  0  0
    3.5721   -1.4229   -0.9412 C   0  0  0  0  0  0  0  0  0  0  0  0
    4.6281   -0.7589   -0.3556 C   0  0  0  0  0  0  0  0  0  0  0  0
    6.0914   -1.0352   -0.6728 C   0  0  1  0  0  0  0  0  0  0  0  0
    6.5964   -2.0105    0.4176 C   0  0  0  0  0  0  0  0  0  0  0  0
    6.2460   -1.7657   -1.9481 N   0  0  0  0  0  0  0  0  0  0  0  0
    6.9221    0.2635   -0.7866 C   0  0  0  0  0  0  0  0  0  0  0  0
    6.4937    1.2926   -1.6580 C   0  0  0  0  0  0  0  0  0  0  0  0
    7.2224    2.4760   -1.7972 C   0  0  0  0  0  0  0  0  0  0  0  0
    8.3925    2.6461   -1.0735 C   0  0  0  0  0  0  0  0  0  0  0  0
    9.0943    3.7789   -1.2057 F   0  0  0  0  0  0  0  0  0  0  0  0
    8.8463    1.6553   -0.2146 C   0  0  0  0  0  0  0  0  0  0  0  0
    8.1179    0.4697   -0.0724 C   0  0  0  0  0  0  0  0  0  0  0  0
    4.2294    0.1496    0.6043 C   0  0  0  0  0  0  0  0  0  0  0  0
    2.9444    0.4044    0.9298 N   0  0  0  0  0  0  0  0  0  0  0  0
    0.3449    0.6448    1.8456 C   0  0  0  0  0  0  0  0  0  0  0  0
   -0.8293   -0.0487    2.5658 C   0  0  0  0  0  0  0  0  0  0  0  0
   -3.2915   -0.8514    3.5244 N   0  0  0  0  0  0  0  0  0  0  0  0
   -4.4865   -1.1723    4.1134 C   0  0  0  0  0  0  0  0  0  0  0  0
   -5.6645   -1.1059    3.5802 N   0  0  0  0  0  0  0  0  0  0  0  0
   -5.6532   -0.6461    2.3219 N   0  0  0  0  0  0  0  0  0  0  0  0
   -6.7601   -0.4517    1.5423 C   0  0  0  0  0  0  0  0  0  0  0  0
   -6.7719    1.0546   -1.9938 C   0  0  0  0  0  0  0  0  0  0  0  0
   -7.7934    1.2939   -2.8234 N   0  0  0  0  0  0  0  0  0  0  0  0
  -10.1937    0.3910   -3.6359 H   0  0  0  0  0  0  0  0  0  0  0  0
  -10.9250    0.5952   -2.0149 H   0  0  0  0  0  0  0  0  0  0  0  0
  -10.3774    2.0333   -2.9291 H   0  0  0  0  0  0  0  0  0  0  0  0
   -9.3152    0.0010   -0.2221 H   0  0  0  0  0  0  0  0  0  0  0  0
   -4.2924    0.6275   -0.3549 H   0  0  0  0  0  0  0  0  0  0  0  0
   -2.4759   -1.0920   -0.1392 H   0  0  0  0  0  0  0  0  0  0  0  0
   -1.9025    0.5848   -0.2458 H   0  0  0  0  0  0  0  0  0  0  0  0
   -0.2236   -0.9798   -1.0856 H   0  0  0  0  0  0  0  0  0  0  0  0
   -0.2446   -1.9071    0.4294 H   0  0  0  0  0  0  0  0  0  0  0  0
    3.7304   -2.1945   -1.6906 H   0  0  0  0  0  0  0  0  0  0  0  0
    7.6253   -2.3428    0.2312 H   0  0  0  0  0  0  0  0  0  0  0  0
    5.9749   -2.9143    0.4693 H   0  0  0  0  0  0  0  0  0  0  0  0
    6.5746   -1.5510    1.4138 H   0  0  0  0  0  0  0  0  0  0  0  0
    7.2372   -1.9597   -2.0930 H   0  0  0  0  0  0  0  0  0  0  0  0
    5.9786   -1.1541   -2.7184 H   0  0  0  0  0  0  0  0  0  0  0  0
    5.5749    1.1829   -2.2333 H   0  0  0  0  0  0  0  0  0  0  0  0
    6.8821    3.2628   -2.4631 H   0  0  0  0  0  0  0  0  0  0  0  0
    9.7668    1.8097    0.3404 H   0  0  0  0  0  0  0  0  0  0  0  0
    8.5118   -0.2808    0.6081 H   0  0  0  0  0  0  0  0  0  0  0  0
    4.9511    0.7324    1.1713 H   0  0  0  0  0  0  0  0  0  0  0  0
    0.0758    1.6863    1.6314 H   0  0  0  0  0  0  0  0  0  0  0  0
    1.1903    0.6640    2.5434 H   0  0  0  0  0  0  0  0  0  0  0  0
   -0.5269   -1.0557    2.8797 H   0  0  0  0  0  0  0  0  0  0  0  0
   -1.0612    0.5283    3.4692 H   0  0  0  0  0  0  0  0  0  0  0  0
   -4.4182   -1.5317    5.1544 H   0  0  0  0  0  0  0  0  0  0  0  0
   -7.7393   -0.7033    1.9226 H   0  0  0  0  0  0  0  0  0  0  0  0
   -5.7724    1.3102   -2.3185 H   0  0  0  0  0  0  0  0  0  0  0  0
  1  2  1  0
  2  3  1  0
  3  4  2  0
  4  5  1  0
  5  6  1  0
  6  7  2  0
  7  8  1  0
  8  9  1  0
  9 10  1  0
 10 11  1  0
 11 12  1  0
 12 13  1  0
 13 14  2  0
 14 15  1  0
 15 16  2  0
 16 17  1  0
 17 18  1  0
 17 19  1  6
 17 20  1  0
 20 21  1  0
 21 22  2  0
 22 23  1  0
 23 24  1  0
 23 25  2  0
 25 26  1  0
 16 27  1  0
 27 28  2  0
 12 29  1  0
 29 30  1  0
  8 31  2  0
 31 32  1  0
 32 33  2  0
 33 34  1  0
 34 35  1  0
  4 36  1  0
 36 37  2  0
 37  2  1  0
 35  5  2  0
 34  7  1  0
 30  9  1  0
 28 13  1  0
 26 20  2  0
  1 38  1  0
  1 39  1  0
  1 40  1  0
  3 41  1  0
  6 42  1  0
 10 43  1  0
 10 44  1  0
 11 45  1  0
 11 46  1  0
 15 47  1  0
 18 48  1  0
 18 49  1  0
 18 50  1  0
 19 51  1  0
 19 52  1  0
 21 53  1  0
 22 54  1  0
 25 55  1  0
 26 56  1  0
 27 57  1  0
 29 58  1  0
 29 59  1  0
 30 60  1  0
 30 61  1  0
 32 62  1  0
 35 63  1  0
 36 64  1  0
M  END
$$$$
