
     RDKit          3D

 64 69  0  0  0  0  0  0  0  0999 V2000
  -39.1190  147.4750    7.0670 C   0  0  0  0  0  0  0  0  0  0  0  0
  -37.9850  148.3370    7.2920 N   0  0  0  0  0  0  0  0  0  0  0  0
  -37.6890  149.4920    6.6290 C   0  0  0  0  0  0  0  0  0  0  0  0
  -36.5200  149.9590    7.1860 C   0  0  0  0  0  0  0  0  0  0  0  0
  -35.7740  151.1600    6.8420 C   0  0  0  0  0  0  0  0  0  0  0  0
  -36.3260  152.3650    6.3360 C   0  0  0  0  0  0  0  0  0  0  0  0
  -35.2780  153.2440    6.1280 C   0  0  0  0  0  0  0  0  0  0  0  0
  -35.1770  154.5950    5.6460 C   0  0  0  0  0  0  0  0  0  0  0  0
  -36.2360  155.3440    5.1490 N   0  0  0  0  0  0  0  0  0  0  0  0
  -37.3440  154.7320    4.3940 C   0  0  0  0  0  0  0  0  0  0  0  0
  -37.8360  155.6140    3.2260 C   0  0  0  0  0  0  0  0  0  0  0  0
  -38.2170  156.9430    3.7020 N   0  0  0  0  0  0  0  0  0  0  0  0
  -38.8140  157.7970    2.7980 C   0  0  0  0  0  0  0  0  0  0  0  0
  -38.0530  158.3830    1.8610 N   0  0  0  0  0  0  0  0  0  0  0  0
  -38.6610  159.1930    0.9670 C   0  0  0  0  0  0  0  0  0  0  0  0
  -40.0150  159.4440    0.9380 C   0  0  0  0  0  0  0  0  0  0  0  0
  -40.6890  160.3760   -0.0600 C   0  0  1  0  0  0  0  0  0  0  0  0
  -42.1250  159.8330   -0.2600 C   0  0  0  0  0  0  0  0  0  0  0  0
  -40.8620  161.7350    0.4930 N   0  0  0  0  0  0  0  0  0  0  0  0
  -39.8830  160.5150   -1.3710 C   0  0  0  0  0  0  0  0  0  0  0  0
  -39.6790  161.7970   -1.9330 C   0  0  0  0  0  0  0  0  0  0  0  0
  -38.9650  161.9640   -3.1210 C   0  0  0  0  0  0  0  0  0  0  0  0
  -38.4510  160.8520   -3.7700 C   0  0  0  0  0  0  0  0  0  0  0  0
  -37.7680  161.0090   -4.9110 F   0  0  0  0  0  0  0  0  0  0  0  0
  -38.6380  159.5790   -3.2520 C   0  0  0  0  0  0  0  0  0  0  0  0
  -39.3500  159.4090   -2.0610 C   0  0  0  0  0  0  0  0  0  0  0  0
  -40.7040  158.8090    1.9520 C   0  0  0  0  0  0  0  0  0  0  0  0
  -40.1380  157.9960    2.8690 N   0  0  0  0  0  0  0  0  0  0  0  0
  -37.4340  157.5200    4.7990 C   0  0  0  0  0  0  0  0  0  0  0  0
  -36.0790  156.8020    4.9690 C   0  0  0  0  0  0  0  0  0  0  0  0
  -33.9950  155.1450    5.6990 N   0  0  0  0  0  0  0  0  0  0  0  0
  -32.9210  154.4240    6.1500 C   0  0  0  0  0  0  0  0  0  0  0  0
  -32.9190  153.1960    6.5610 N   0  0  0  0  0  0  0  0  0  0  0  0
  -34.1320  152.6280    6.5420 N   0  0  0  0  0  0  0  0  0  0  0  0
  -34.4140  151.3530    6.9490 C   0  0  0  0  0  0  0  0  0  0  0  0
  -36.1950  149.0110    8.1760 C   0  0  0  0  0  0  0  0  0  0  0  0
  -37.0890  148.0190    8.2460 N   0  0  0  0  0  0  0  0  0  0  0  0
  -39.5361  147.1579    8.0342 H   0  0  0  0  0  0  0  0  0  0  0  0
  -39.8864  148.0198    6.4976 H   0  0  0  0  0  0  0  0  0  0  0  0
  -38.7994  146.5898    6.4976 H   0  0  0  0  0  0  0  0  0  0  0  0
  -38.2665  149.9554    5.8155 H   0  0  0  0  0  0  0  0  0  0  0  0
  -37.3908  152.5638    6.1444 H   0  0  0  0  0  0  0  0  0  0  0  0
  -37.0013  153.7694    3.9865 H   0  0  0  0  0  0  0  0  0  0  0  0
  -38.1868  154.6059    5.0896 H   0  0  0  0  0  0  0  0  0  0  0  0
  -37.0290  155.7142    2.4853 H   0  0  0  0  0  0  0  0  0  0  0  0
  -38.7168  155.1370    2.7714 H   0  0  0  0  0  0  0  0  0  0  0  0
  -38.0320  159.6855    0.2108 H   0  0  0  0  0  0  0  0  0  0  0  0
  -42.5904  159.6570    0.7210 H   0  0  0  0  0  0  0  0  0  0  0  0
  -42.7201  160.5682   -0.8216 H   0  0  0  0  0  0  0  0  0  0  0  0
  -42.0848  158.8880   -0.8216 H   0  0  0  0  0  0  0  0  0  0  0  0
  -40.1710  161.8770    1.2300 H   0  0  0  0  0  0  0  0  0  0  0  0
  -41.7660  161.7930    0.9610 H   0  0  0  0  0  0  0  0  0  0  0  0
  -40.0914  162.6804   -1.4236 H   0  0  0  0  0  0  0  0  0  0  0  0
  -38.8115  162.9699   -3.5388 H   0  0  0  0  0  0  0  0  0  0  0  0
  -38.2267  158.7045   -3.7775 H   0  0  0  0  0  0  0  0  0  0  0  0
  -39.4961  158.3964   -1.6568 H   0  0  0  0  0  0  0  0  0  0  0  0
  -41.7891  158.9772    2.0171 H   0  0  0  0  0  0  0  0  0  0  0  0
  -37.2502  158.5833    4.5855 H   0  0  0  0  0  0  0  0  0  0  0  0
  -38.0064  157.3994    5.7306 H   0  0  0  0  0  0  0  0  0  0  0  0
  -35.4673  156.9840    4.0731 H   0  0  0  0  0  0  0  0  0  0  0  0
  -35.5967  157.2028    5.8728 H   0  0  0  0  0  0  0  0  0  0  0  0
  -31.9529  154.9461    6.1646 H   0  0  0  0  0  0  0  0  0  0  0  0
  -33.6822  150.6108    7.3006 H   0  0  0  0  0  0  0  0  0  0  0  0
  -35.3054  149.0791    8.8194 H   0  0  0  0  0  0  0  0  0  0  0  0
  1  2  1  0
  2  3  1  0
  3  4  2  0
  4  5  1  0
  5  6  1  0
  6  7  2  0
  7  8  1  0
  8  9  1  0
  9 10  1  0
 10 11  1  0
 11 12  1  0
 12 13  1  0
 13 14  2  0
 14 15  1  0
 15 16  2  0
 16 17  1  0
 17 18  1  0
 17 19  1  1
 17 20  1  0
 20 21  1  0
 21 22  2  0
 22 23  1  0
 23 24  1  0
 23 25  2  0
 25 26  1  0
 16 27  1  0
 27 28  2  0
 12 29  1  0
 29 30  1  0
  8 31  2  0
 31 32  1  0
 32 33  2  0
 33 34  1  0
 34 35  1  0
  4 36  1  0
 36 37  2  0
 37  2  1  0
 35  5  2  0
 34  7  1  0
 30  9  1  0
 28 13  1  0
 26 20  2  0
  1 38  1  0
  1 39  1  0
  1 40  1  0
  3 41  1  0
  6 42  1  0
 10 43  1  0
 10 44  1  0
 11 45  1  0
 11 46  1  0
 15 47  1  0
 18 48  1  0
 18 49  1  0
 18 50  1  0
 19 51  1  0
 19 52  1  0
 21 53  1  0
 22 54  1  0
 25 55  1  0
 26 56  1  0
 27 57  1  0
 29 58  1  0
 29 59  1  0
 30 60  1  0
 30 61  1  0
 32 62  1  0
 35 63  1  0
 36 64  1  0
M  END
>  <meeko>  (1) 
{"is_sidechain": false}

>  <vina_affinity_kcal_mol>  (1) 
-8.991

>  <pose_rank>  (1) 
1

$$$$

     RDKit          3D

 64 69  0  0  0  0  0  0  0  0999 V2000
  -36.3490  158.1710    6.7550 C   0  0  0  0  0  0  0  0  0  0  0  0
  -36.6160  156.8080    6.3630 N   0  0  0  0  0  0  0  0  0  0  0  0
  -36.0950  155.6770    6.9200 C   0  0  0  0  0  0  0  0  0  0  0  0
  -36.6360  154.6260    6.2160 C   0  0  0  0  0  0  0  0  0  0  0  0
  -36.4090  153.2010    6.4070 C   0  0  0  0  0  0  0  0  0  0  0  0
  -36.6270  152.1880    5.4380 C   0  0  0  0  0  0  0  0  0  0  0  0
  -36.3050  150.9780    6.0250 C   0  0  0  0  0  0  0  0  0  0  0  0
  -36.3070  149.6100    5.5810 C   0  0  0  0  0  0  0  0  0  0  0  0
  -36.7750  149.1740    4.3480 N   0  0  0  0  0  0  0  0  0  0  0  0
  -37.9160  149.8160    3.6700 C   0  0  0  0  0  0  0  0  0  0  0  0
  -38.8310  148.8060    2.9460 C   0  0  0  0  0  0  0  0  0  0  0  0
  -38.0660  147.9950    1.9990 N   0  0  0  0  0  0  0  0  0  0  0  0
  -38.7710  147.1470    1.1710 C   0  0  0  0  0  0  0  0  0  0  0  0
  -40.1130  147.1890    1.1920 N   0  0  0  0  0  0  0  0  0  0  0  0
  -40.7850  146.3710    0.3530 C   0  0  0  0  0  0  0  0  0  0  0  0
  -40.1870  145.5100   -0.5410 C   0  0  0  0  0  0  0  0  0  0  0  0
  -40.9520  144.5760   -1.4680 C   0  0  1  0  0  0  0  0  0  0  0  0
  -40.1520  143.2520   -1.5090 C   0  0  0  0  0  0  0  0  0  0  0  0
  -42.2730  144.2140   -0.9120 N   0  0  0  0  0  0  0  0  0  0  0  0
  -41.1990  145.2020   -2.8600 C   0  0  0  0  0  0  0  0  0  0  0  0
  -41.9320  144.4800   -3.8310 C   0  0  0  0  0  0  0  0  0  0  0  0
  -42.1680  145.0060   -5.1030 C   0  0  0  0  0  0  0  0  0  0  0  0
  -41.6690  146.2600   -5.4260 C   0  0  0  0  0  0  0  0  0  0  0  0
  -41.8930  146.7660   -6.6450 F   0  0  0  0  0  0  0  0  0  0  0  0
  -40.9410  146.9930   -4.5010 C   0  0  0  0  0  0  0  0  0  0  0  0
  -40.7060  146.4700   -3.2260 C   0  0  0  0  0  0  0  0  0  0  0  0
  -38.8080  145.5310   -0.4720 C   0  0  0  0  0  0  0  0  0  0  0  0
  -38.0960  146.3270    0.3540 N   0  0  0  0  0  0  0  0  0  0  0  0
  -36.6960  147.6320    2.3710 C   0  0  0  0  0  0  0  0  0  0  0  0
  -36.4510  147.8100    3.8840 C   0  0  0  0  0  0  0  0  0  0  0  0
  -35.8150  148.7290    6.4080 N   0  0  0  0  0  0  0  0  0  0  0  0
  -35.3780  149.1180    7.6470 C   0  0  0  0  0  0  0  0  0  0  0  0
  -35.3800  150.3170    8.1370 N   0  0  0  0  0  0  0  0  0  0  0  0
  -35.8530  151.2370    7.2870 N   0  0  0  0  0  0  0  0  0  0  0  0
  -35.9380  152.5790    7.5420 C   0  0  0  0  0  0  0  0  0  0  0  0
  -37.4700  155.2320    5.2560 C   0  0  0  0  0  0  0  0  0  0  0  0
  -37.4630  156.5660    5.3440 N   0  0  0  0  0  0  0  0  0  0  0  0
  -36.3353  158.2409    7.8527 H   0  0  0  0  0  0  0  0  0  0  0  0
  -35.3727  158.4829    6.3555 H   0  0  0  0  0  0  0  0  0  0  0  0
  -37.1355  158.8282    6.3555 H   0  0  0  0  0  0  0  0  0  0  0  0
  -35.3873  155.6175    7.7600 H   0  0  0  0  0  0  0  0  0  0  0  0
  -36.9861  152.3375    4.4091 H   0  0  0  0  0  0  0  0  0  0  0  0
  -38.5128  150.3543    4.4211 H   0  0  0  0  0  0  0  0  0  0  0  0
  -37.5069  150.4956    2.9079 H   0  0  0  0  0  0  0  0  0  0  0  0
  -39.2984  148.1451    3.6908 H   0  0  0  0  0  0  0  0  0  0  0  0
  -39.5999  149.3632    2.3908 H   0  0  0  0  0  0  0  0  0  0  0  0
  -41.8843  146.3939    0.3858 H   0  0  0  0  0  0  0  0  0  0  0  0
  -39.9482  142.9148   -0.4820 H   0  0  0  0  0  0  0  0  0  0  0  0
  -40.7383  142.4856   -2.0371 H   0  0  0  0  0  0  0  0  0  0  0  0
  -39.2008  143.4145   -2.0371 H   0  0  0  0  0  0  0  0  0  0  0  0
  -42.3360  143.1970   -0.8610 H   0  0  0  0  0  0  0  0  0  0  0  0
  -43.0000  144.4930   -1.5700 H   0  0  0  0  0  0  0  0  0  0  0  0
  -42.3242  143.4837   -3.5789 H   0  0  0  0  0  0  0  0  0  0  0  0
  -42.7446  144.4311   -5.8427 H   0  0  0  0  0  0  0  0  0  0  0  0
  -40.5489  147.9849   -4.7702 H   0  0  0  0  0  0  0  0  0  0  0  0
  -40.1275  147.0573   -2.4977 H   0  0  0  0  0  0  0  0  0  0  0  0
  -38.2515  144.8527   -1.1355 H   0  0  0  0  0  0  0  0  0  0  0  0
  -36.5203  146.5799    2.1025 H   0  0  0  0  0  0  0  0  0  0  0  0
  -36.0057  148.2965    1.8306 H   0  0  0  0  0  0  0  0  0  0  0  0
  -37.0795  147.0918    4.4309 H   0  0  0  0  0  0  0  0  0  0  0  0
  -35.3818  147.6351    4.0744 H   0  0  0  0  0  0  0  0  0  0  0  0
  -34.9817  148.3243    8.2974 H   0  0  0  0  0  0  0  0  0  0  0  0
  -35.6758  153.0744    8.4885 H   0  0  0  0  0  0  0  0  0  0  0  0
  -38.0606  154.6707    4.5170 H   0  0  0  0  0  0  0  0  0  0  0  0
  1  2  1  0
  2  3  1  0
  3  4  2  0
  4  5  1  0
  5  6  1  0
  6  7  2  0
  7  8  1  0
  8  9  1  0
  9 10  1  0
 10 11  1  0
 11 12  1  0
 12 13  1  0
 13 14  2  0
 14 15  1  0
 15 16  2  0
 16 17  1  0
 17 18  1  0
 17 19  1  1
 17 20  1  0
 20 21  1  0
 21 22  2  0
 22 23  1  0
 23 24  1  0
 23 25  2  0
 25 26  1  0
 16 27  1  0
 27 28  2  0
 12 29  1  0
 29 30  1  0
  8 31  2  0
 31 32  1  0
 32 33  2  0
 33 34  1  0
 34 35  1  0
  4 36  1  0
 36 37  2  0
 37  2  1  0
 35  5  2  0
 34  7  1  0
 30  9  1  0
 28 13  1  0
 26 20  2  0
  1 38  1  0
  1 39  1  0
  1 40  1  0
  3 41  1  0
  6 42  1  0
 10 43  1  0
 10 44  1  0
 11 45  1  0
 11 46  1  0
 15 47  1  0
 18 48  1  0
 18 49  1  0
 18 50  1  0
 19 51  1  0
 19 52  1  0
 21 53  1  0
 22 54  1  0
 25 55  1  0
 26 56  1  0
 27 57  1  0
 29 58  1  0
 29 59  1  0
 30 60  1  0
 30 61  1  0
 32 62  1  0
 35 63  1  0
 36 64  1  0
M  END
>  <meeko>  (2) 
{"is_sidechain": false}

>  <vina_affinity_kcal_mol>  (2) 
-8.891

>  <pose_rank>  (2) 
2

$$$$

     RDKit          3D

 64 69  0  0  0  0  0  0  0  0999 V2000
  -41.5600  145.8900   -8.0560 C   0  0  0  0  0  0  0  0  0  0  0  0
  -41.7930  146.0220   -6.6390 N   0  0  0  0  0  0  0  0  0  0  0  0
  -41.5360  145.0910   -5.6760 C   0  0  0  0  0  0  0  0  0  0  0  0
  -41.9200  145.6640   -4.4840 C   0  0  0  0  0  0  0  0  0  0  0  0
  -41.8580  145.0930   -3.1480 C   0  0  0  0  0  0  0  0  0  0  0  0
  -41.4120  145.7620   -1.9780 C   0  0  0  0  0  0  0  0  0  0  0  0
  -41.4960  144.8630   -0.9310 C   0  0  0  0  0  0  0  0  0  0  0  0
  -41.2040  144.9250    0.4760 C   0  0  0  0  0  0  0  0  0  0  0  0
  -40.6250  146.0100    1.1220 N   0  0  0  0  0  0  0  0  0  0  0  0
  -39.6200  146.8680    0.4670 C   0  0  0  0  0  0  0  0  0  0  0  0
  -38.5000  147.3210    1.4260 C   0  0  0  0  0  0  0  0  0  0  0  0
  -39.0580  147.9940    2.5980 N   0  0  0  0  0  0  0  0  0  0  0  0
  -38.1730  148.5860    3.4760 C   0  0  0  0  0  0  0  0  0  0  0  0
  -38.6600  149.2810    4.5160 N   0  0  0  0  0  0  0  0  0  0  0  0
  -37.7780  149.8290    5.3800 C   0  0  0  0  0  0  0  0  0  0  0  0
  -36.4090  149.7060    5.2790 C   0  0  0  0  0  0  0  0  0  0  0  0
  -35.4220  150.3450    6.2450 C   0  0  1  0  0  0  0  0  0  0  0  0
  -35.8640  149.9190    7.6660 C   0  0  0  0  0  0  0  0  0  0  0  0
  -34.0610  149.7920    6.0810 N   0  0  0  0  0  0  0  0  0  0  0  0
  -35.3190  151.8750    6.0530 C   0  0  0  0  0  0  0  0  0  0  0  0
  -34.2460  152.4160    5.3050 C   0  0  0  0  0  0  0  0  0  0  0  0
  -34.1130  153.7920    5.1170 C   0  0  0  0  0  0  0  0  0  0  0  0
  -35.0450  154.6520    5.6800 C   0  0  0  0  0  0  0  0  0  0  0  0
  -34.9180  155.9730    5.5030 F   0  0  0  0  0  0  0  0  0  0  0  0
  -36.1060  154.1570    6.4240 C   0  0  0  0  0  0  0  0  0  0  0  0
  -36.2440  152.7790    6.6120 C   0  0  0  0  0  0  0  0  0  0  0  0
  -36.0120  148.9890    4.1680 C   0  0  0  0  0  0  0  0  0  0  0  0
  -36.8570  148.4290    3.2770 N   0  0  0  0  0  0  0  0  0  0  0  0
  -40.3350  147.4990    3.1190 C   0  0  0  0  0  0  0  0  0  0  0  0
  -40.6510  146.0820    2.5970 C   0  0  0  0  0  0  0  0  0  0  0  0
  -41.5280  143.8780    1.1850 N   0  0  0  0  0  0  0  0  0  0  0  0
  -42.0690  142.7760    0.5750 C   0  0  0  0  0  0  0  0  0  0  0  0
  -42.3230  142.6250   -0.6850 N   0  0  0  0  0  0  0  0  0  0  0  0
  -42.0260  143.7040   -1.4210 N   0  0  0  0  0  0  0  0  0  0  0  0
  -42.2220  143.8190   -2.7700 C   0  0  0  0  0  0  0  0  0  0  0  0
  -42.3960  146.9420   -4.8410 C   0  0  0  0  0  0  0  0  0  0  0  0
  -42.3170  147.1660   -6.1570 N   0  0  0  0  0  0  0  0  0  0  0  0
  -40.6141  145.3541   -8.2237 H   0  0  0  0  0  0  0  0  0  0  0  0
  -42.3868  145.3262   -8.5126 H   0  0  0  0  0  0  0  0  0  0  0  0
  -41.5014  146.8890   -8.5126 H   0  0  0  0  0  0  0  0  0  0  0  0
  -41.1093  144.0877   -5.8216 H   0  0  0  0  0  0  0  0  0  0  0  0
  -41.0638  146.8036   -1.9159 H   0  0  0  0  0  0  0  0  0  0  0  0
  -39.1658  146.3060   -0.3624 H   0  0  0  0  0  0  0  0  0  0  0  0
  -40.1378  147.7721    0.1141 H   0  0  0  0  0  0  0  0  0  0  0  0
  -37.9287  146.4402    1.7543 H   0  0  0  0  0  0  0  0  0  0  0  0
  -37.8453  148.0267    0.8937 H   0  0  0  0  0  0  0  0  0  0  0  0
  -38.1796  150.4130    6.2212 H   0  0  0  0  0  0  0  0  0  0  0  0
  -35.2832  150.4788    8.4139 H   0  0  0  0  0  0  0  0  0  0  0  0
  -36.9347  150.1344    7.7970 H   0  0  0  0  0  0  0  0  0  0  0  0
  -35.6882  148.8411    7.7970 H   0  0  0  0  0  0  0  0  0  0  0  0
  -33.8500  149.7370    5.0840 H   0  0  0  0  0  0  0  0  0  0  0  0
  -34.0510  148.8280    6.4090 H   0  0  0  0  0  0  0  0  0  0  0  0
  -33.5016  151.7375    4.8628 H   0  0  0  0  0  0  0  0  0  0  0  0
  -33.2754  154.1922    4.5268 H   0  0  0  0  0  0  0  0  0  0  0  0
  -36.8384  154.8487    6.8658 H   0  0  0  0  0  0  0  0  0  0  0  0
  -37.0870  152.3946    7.2050 H   0  0  0  0  0  0  0  0  0  0  0  0
  -34.9324  148.8656    3.9972 H   0  0  0  0  0  0  0  0  0  0  0  0
  -40.2858  147.4719    4.2176 H   0  0  0  0  0  0  0  0  0  0  0  0
  -41.1314  148.1767    2.7778 H   0  0  0  0  0  0  0  0  0  0  0  0
  -39.9035  145.3820    2.9987 H   0  0  0  0  0  0  0  0  0  0  0  0
  -41.6662  145.8193    2.9292 H   0  0  0  0  0  0  0  0  0  0  0  0
  -42.3144  141.9261    1.2288 H   0  0  0  0  0  0  0  0  0  0  0  0
  -42.6036  143.0317   -3.4367 H   0  0  0  0  0  0  0  0  0  0  0  0
  -42.7883  147.6727   -4.1184 H   0  0  0  0  0  0  0  0  0  0  0  0
  1  2  1  0
  2  3  1  0
  3  4  2  0
  4  5  1  0
  5  6  1  0
  6  7  2  0
  7  8  1  0
  8  9  1  0
  9 10  1  0
 10 11  1  0
 11 12  1  0
 12 13  1  0
 13 14  2  0
 14 15  1  0
 15 16  2  0
 16 17  1  0
 17 18  1  0
 17 19  1  6
 17 20  1  0
 20 21  1  0
 21 22  2  0
 22 23  1  0
 23 24  1  0
 23 25  2  0
 25 26  1  0
 16 27  1  0
 27 28  2  0
 12 29  1  0
 29 30  1  0
  8 31  2  0
 31 32  1  0
 32 33  2  0
 33 34  1  0
 34 35  1  0
  4 36  1  0
 36 37  2  0
 37  2  1  0
 35  5  2  0
 34  7  1  0
 30  9  1  0
 28 13  1  0
 26 20  2  0
  1 38  1  0
  1 39  1  0
  1 40  1  0
  3 41  1  0
  6 42  1  0
 10 43  1  0
 10 44  1  0
 11 45  1  0
 11 46  1  0
 15 47  1  0
 18 48  1  0
 18 49  1  0
 18 50  1  0
 19 51  1  0
 19 52  1  0
 21 53  1  0
 22 54  1  0
 25 55  1  0
 26 56  1  0
 27 57  1  0
 29 58  1  0
 29 59  1  0
 30 60  1  0
 30 61  1  0
 32 62  1  0
 35 63  1  0
 36 64  1  0
M  END
>  <meeko>  (3) 
{"is_sidechain": false}

>  <vina_affinity_kcal_mol>  (3) 
-8.841

>  <pose_rank>  (3) 
3

$$$$

     RDKit          3D

 64 69  0  0  0  0  0  0  0  0999 V2000
  -41.2710  159.5530    0.8850 C   0  0  0  0  0  0  0  0  0  0  0  0
  -40.0260  158.9910    1.3500 N   0  0  0  0  0  0  0  0  0  0  0  0
  -39.7650  158.4910    2.5920 C   0  0  0  0  0  0  0  0  0  0  0  0
  -38.4550  158.0730    2.5640 C   0  0  0  0  0  0  0  0  0  0  0  0
  -37.6790  157.4630    3.6340 C   0  0  0  0  0  0  0  0  0  0  0  0
  -37.5440  156.0710    3.8720 C   0  0  0  0  0  0  0  0  0  0  0  0
  -36.7420  155.9190    4.9890 C   0  0  0  0  0  0  0  0  0  0  0  0
  -36.2370  154.7880    5.7210 C   0  0  0  0  0  0  0  0  0  0  0  0
  -36.5730  153.4640    5.4700 N   0  0  0  0  0  0  0  0  0  0  0  0
  -37.9120  153.0690    4.9980 C   0  0  0  0  0  0  0  0  0  0  0  0
  -38.4040  151.7460    5.6210 C   0  0  0  0  0  0  0  0  0  0  0  0
  -37.4430  150.6700    5.3840 N   0  0  0  0  0  0  0  0  0  0  0  0
  -37.8110  149.3930    5.7550 C   0  0  0  0  0  0  0  0  0  0  0  0
  -37.4880  148.9570    6.9830 N   0  0  0  0  0  0  0  0  0  0  0  0
  -37.8820  147.7140    7.3370 C   0  0  0  0  0  0  0  0  0  0  0  0
  -38.6130  146.8690    6.5320 C   0  0  0  0  0  0  0  0  0  0  0  0
  -39.0340  145.4620    6.9310 C   0  0  1  0  0  0  0  0  0  0  0  0
  -38.1640  144.4930    6.0940 C   0  0  0  0  0  0  0  0  0  0  0  0
  -38.6960  145.1680    8.3400 N   0  0  0  0  0  0  0  0  0  0  0  0
  -40.5550  145.2360    6.7700 C   0  0  0  0  0  0  0  0  0  0  0  0
  -41.4490  145.8050    7.7090 C   0  0  0  0  0  0  0  0  0  0  0  0
  -42.8280  145.6160    7.6040 C   0  0  0  0  0  0  0  0  0  0  0  0
  -43.3350  144.8500    6.5650 C   0  0  0  0  0  0  0  0  0  0  0  0
  -44.6580  144.6660    6.4640 F   0  0  0  0  0  0  0  0  0  0  0  0
  -42.4880  144.2720    5.6310 C   0  0  0  0  0  0  0  0  0  0  0  0
  -41.1070  144.4620    5.7320 C   0  0  0  0  0  0  0  0  0  0  0  0
  -38.8780  147.4040    5.2870 C   0  0  0  0  0  0  0  0  0  0  0  0
  -38.5000  148.6370    4.8880 N   0  0  0  0  0  0  0  0  0  0  0  0
  -36.0190  151.0190    5.3930 C   0  0  0  0  0  0  0  0  0  0  0  0
  -35.7720  152.3800    6.0740 C   0  0  0  0  0  0  0  0  0  0  0  0
  -35.3920  155.0470    6.6810 N   0  0  0  0  0  0  0  0  0  0  0  0
  -35.0670  156.3440    6.9790 C   0  0  0  0  0  0  0  0  0  0  0  0
  -35.5060  157.4150    6.3990 N   0  0  0  0  0  0  0  0  0  0  0  0
  -36.3510  157.1640    5.3900 N   0  0  0  0  0  0  0  0  0  0  0  0
  -36.9360  158.1110    4.5950 C   0  0  0  0  0  0  0  0  0  0  0  0
  -38.0160  158.3670    1.2580 C   0  0  0  0  0  0  0  0  0  0  0  0
  -38.9740  158.9260    0.5120 N   0  0  0  0  0  0  0  0  0  0  0  0
  -41.8920  159.8333    1.7486 H   0  0  0  0  0  0  0  0  0  0  0  0
  -41.0655  160.4457    0.2760 H   0  0  0  0  0  0  0  0  0  0  0  0
  -41.8046  158.8084    0.2760 H   0  0  0  0  0  0  0  0  0  0  0  0
  -40.4604  158.4338    3.4424 H   0  0  0  0  0  0  0  0  0  0  0  0
  -37.9940  155.2618    3.2780 H   0  0  0  0  0  0  0  0  0  0  0  0
  -38.6246  153.8655    5.2582 H   0  0  0  0  0  0  0  0  0  0  0  0
  -37.8462  152.9166    3.9106 H   0  0  0  0  0  0  0  0  0  0  0  0
  -38.5311  151.8834    6.7050 H   0  0  0  0  0  0  0  0  0  0  0  0
  -39.3616  151.4718    5.1542 H   0  0  0  0  0  0  0  0  0  0  0  0
  -37.5995  147.3522    8.3367 H   0  0  0  0  0  0  0  0  0  0  0  0
  -37.5833  143.8462    6.7682 H   0  0  0  0  0  0  0  0  0  0  0  0
  -38.8135  143.8721    5.4595 H   0  0  0  0  0  0  0  0  0  0  0  0
  -37.4769  145.0721    5.4595 H   0  0  0  0  0  0  0  0  0  0  0  0
  -38.8760  146.0030    8.8980 H   0  0  0  0  0  0  0  0  0  0  0  0
  -37.6920  145.0080    8.4150 H   0  0  0  0  0  0  0  0  0  0  0  0
  -41.0490  146.4079    8.5376 H   0  0  0  0  0  0  0  0  0  0  0  0
  -43.5074  146.0711    8.3397 H   0  0  0  0  0  0  0  0  0  0  0  0
  -42.9024  143.6652    4.8124 H   0  0  0  0  0  0  0  0  0  0  0  0
  -40.4411  143.9994    4.9887 H   0  0  0  0  0  0  0  0  0  0  0  0
  -39.4356  146.7826    4.5708 H   0  0  0  0  0  0  0  0  0  0  0  0
  -35.4644  150.2412    5.9383 H   0  0  0  0  0  0  0  0  0  0  0  0
  -35.6755  151.0888    4.3503 H   0  0  0  0  0  0  0  0  0  0  0  0
  -36.0366  152.2959    7.1384 H   0  0  0  0  0  0  0  0  0  0  0  0
  -34.7098  152.6337    5.9422 H   0  0  0  0  0  0  0  0  0  0  0  0
  -34.3535  156.4920    7.8030 H   0  0  0  0  0  0  0  0  0  0  0  0
  -36.8311  159.2005    4.7044 H   0  0  0  0  0  0  0  0  0  0  0  0
  -36.9991  158.1598    0.8932 H   0  0  0  0  0  0  0  0  0  0  0  0
  1  2  1  0
  2  3  1  0
  3  4  2  0
  4  5  1  0
  5  6  1  0
  6  7  2  0
  7  8  1  0
  8  9  1  0
  9 10  1  0
 10 11  1  0
 11 12  1  0
 12 13  1  0
 13 14  2  0
 14 15  1  0
 15 16  2  0
 16 17  1  0
 17 18  1  0
 17 19  1  1
 17 20  1  0
 20 21  1  0
 21 22  2  0
 22 23  1  0
 23 24  1  0
 23 25  2  0
 25 26  1  0
 16 27  1  0
 27 28  2  0
 12 29  1  0
 29 30  1  0
  8 31  2  0
 31 32  1  0
 32 33  2  0
 33 34  1  0
 34 35  1  0
  4 36  1  0
 36 37  2  0
 37  2  1  0
 35  5  2  0
 34  7  1  0
 30  9  1  0
 28 13  1  0
 26 20  2  0
  1 38  1  0
  1 39  1  0
  1 40  1  0
  3 41  1  0
  6 42  1  0
 10 43  1  0
 10 44  1  0
 11 45  1  0
 11 46  1  0
 15 47  1  0
 18 48  1  0
 18 49  1  0
 18 50  1  0
 19 51  1  0
 19 52  1  0
 21 53  1  0
 22 54  1  0
 25 55  1  0
 26 56  1  0
 27 57  1  0
 29 58  1  0
 29 59  1  0
 30 60  1  0
 30 61  1  0
 32 62  1  0
 35 63  1  0
 36 64  1  0
M  END
>  <meeko>  (4) 
{"is_sidechain": false}

>  <vina_affinity_kcal_mol>  (4) 
-8.839

>  <pose_rank>  (4) 
4

$$$$

     RDKit          3D

 64 69  0  0  0  0  0  0  0  0999 V2000
  -41.9630  145.0110   -6.5820 C   0  0  0  0  0  0  0  0  0  0  0  0
  -41.6260  145.3920   -5.2320 N   0  0  0  0  0  0  0  0  0  0  0  0
  -41.8980  144.6940   -4.0910 C   0  0  0  0  0  0  0  0  0  0  0  0
  -41.3900  145.4470   -3.0570 C   0  0  0  0  0  0  0  0  0  0  0  0
  -41.4140  145.1550   -1.6320 C   0  0  0  0  0  0  0  0  0  0  0  0
  -40.9850  146.0260   -0.5980 C   0  0  0  0  0  0  0  0  0  0  0  0
  -41.1590  145.3610    0.6020 C   0  0  0  0  0  0  0  0  0  0  0  0
  -40.9250  145.6940    1.9820 C   0  0  0  0  0  0  0  0  0  0  0  0
  -40.3180  146.8610    2.4270 N   0  0  0  0  0  0  0  0  0  0  0  0
  -39.2440  147.5260    1.6670 C   0  0  0  0  0  0  0  0  0  0  0  0
  -38.1430  148.1170    2.5740 C   0  0  0  0  0  0  0  0  0  0  0  0
  -38.7150  149.0350    3.5580 N   0  0  0  0  0  0  0  0  0  0  0  0
  -37.8390  149.7540    4.3440 C   0  0  0  0  0  0  0  0  0  0  0  0
  -36.6210  149.2450    4.5880 N   0  0  0  0  0  0  0  0  0  0  0  0
  -35.7680  149.9770    5.3370 C   0  0  0  0  0  0  0  0  0  0  0  0
  -36.0530  151.2230    5.8510 C   0  0  0  0  0  0  0  0  0  0  0  0
  -35.0930  152.0320    6.7120 C   0  0  1  0  0  0  0  0  0  0  0  0
  -35.4160  151.6690    8.1820 C   0  0  0  0  0  0  0  0  0  0  0  0
  -33.6910  151.6130    6.5080 N   0  0  0  0  0  0  0  0  0  0  0  0
  -35.1660  153.5450    6.4090 C   0  0  0  0  0  0  0  0  0  0  0  0
  -34.4550  154.0730    5.3050 C   0  0  0  0  0  0  0  0  0  0  0  0
  -34.4870  155.4360    5.0050 C   0  0  0  0  0  0  0  0  0  0  0  0
  -35.2250  156.2950    5.8070 C   0  0  0  0  0  0  0  0  0  0  0  0
  -35.2560  157.6020    5.5220 F   0  0  0  0  0  0  0  0  0  0  0  0
  -35.9290  155.8130    6.9000 C   0  0  0  0  0  0  0  0  0  0  0  0
  -35.9010  154.4490    7.2030 C   0  0  0  0  0  0  0  0  0  0  0  0
  -37.3340  151.6470    5.5580 C   0  0  0  0  0  0  0  0  0  0  0  0
  -38.2220  150.9480    4.8190 N   0  0  0  0  0  0  0  0  0  0  0  0
  -40.0370  148.7080    4.1000 C   0  0  0  0  0  0  0  0  0  0  0  0
  -40.4030  147.2300    3.8550 C   0  0  0  0  0  0  0  0  0  0  0  0
  -41.3320  144.8250    2.8670 N   0  0  0  0  0  0  0  0  0  0  0  0
  -41.9020  143.6470    2.4620 C   0  0  0  0  0  0  0  0  0  0  0  0
  -42.1100  143.2560    1.2450 N   0  0  0  0  0  0  0  0  0  0  0  0
  -41.7260  144.1510    0.3260 N   0  0  0  0  0  0  0  0  0  0  0  0
  -41.8590  144.0000   -1.0270 C   0  0  0  0  0  0  0  0  0  0  0  0
  -40.8330  146.5810   -3.6830 C   0  0  0  0  0  0  0  0  0  0  0  0
  -40.9730  146.5490   -5.0120 N   0  0  0  0  0  0  0  0  0  0  0  0
  -42.6916  144.1872   -6.5595 H   0  0  0  0  0  0  0  0  0  0  0  0
  -42.3999  145.8727   -7.1080 H   0  0  0  0  0  0  0  0  0  0  0  0
  -41.0544  144.6826   -7.1080 H   0  0  0  0  0  0  0  0  0  0  0  0
  -42.4171  143.7273   -4.0137 H   0  0  0  0  0  0  0  0  0  0  0  0
  -40.5871  147.0434   -0.7269 H   0  0  0  0  0  0  0  0  0  0  0  0
  -38.7843  146.7896    0.9915 H   0  0  0  0  0  0  0  0  0  0  0  0
  -39.6993  148.3608    1.1140 H   0  0  0  0  0  0  0  0  0  0  0  0
  -37.6317  147.2976    3.1004 H   0  0  0  0  0  0  0  0  0  0  0  0
  -37.4314  148.6733    1.9462 H   0  0  0  0  0  0  0  0  0  0  0  0
  -34.7777  149.5488    5.5513 H   0  0  0  0  0  0  0  0  0  0  0  0
  -34.8379  152.3187    8.8556 H   0  0  0  0  0  0  0  0  0  0  0  0
  -36.4908  151.8123    8.3674 H   0  0  0  0  0  0  0  0  0  0  0  0
  -35.1488  150.6182    8.3674 H   0  0  0  0  0  0  0  0  0  0  0  0
  -33.5290  150.7530    7.0320 H   0  0  0  0  0  0  0  0  0  0  0  0
  -33.0720  152.3030    6.9320 H   0  0  0  0  0  0  0  0  0  0  0  0
  -33.8651  153.3954    4.6703 H   0  0  0  0  0  0  0  0  0  0  0  0
  -33.9314  155.8261    4.1395 H   0  0  0  0  0  0  0  0  0  0  0  0
  -36.5095  156.5042    7.5286 H   0  0  0  0  0  0  0  0  0  0  0  0
  -36.4604  154.0754    8.0734 H   0  0  0  0  0  0  0  0  0  0  0  0
  -37.6534  152.6222    5.9542 H   0  0  0  0  0  0  0  0  0  0  0  0
  -40.0360  148.9004    5.1830 H   0  0  0  0  0  0  0  0  0  0  0  0
  -40.7823  149.3355    3.5894 H   0  0  0  0  0  0  0  0  0  0  0  0
  -39.7104  146.5946    4.4265 H   0  0  0  0  0  0  0  0  0  0  0  0
  -41.4437  147.0826    4.1795 H   0  0  0  0  0  0  0  0  0  0  0  0
  -42.2179  142.9571    3.2584 H   0  0  0  0  0  0  0  0  0  0  0  0
  -42.2526  143.1114   -1.5421 H   0  0  0  0  0  0  0  0  0  0  0  0
  -40.3390  147.3996   -3.1391 H   0  0  0  0  0  0  0  0  0  0  0  0
  1  2  1  0
  2  3  1  0
  3  4  2  0
  4  5  1  0
  5  6  1  0
  6  7  2  0
  7  8  1  0
  8  9  1  0
  9 10  1  0
 10 11  1  0
 11 12  1  0
 12 13  1  0
 13 14  2  0
 14 15  1  0
 15 16  2  0
 16 17  1  0
 17 18  1  0
 17 19  1  6
 17 20  1  0
 20 21  1  0
 21 22  2  0
 22 23  1  0
 23 24  1  0
 23 25  2  0
 25 26  1  0
 16 27  1  0
 27 28  2  0
 12 29  1  0
 29 30  1  0
  8 31  2  0
 31 32  1  0
 32 33  2  0
 33 34  1  0
 34 35  1  0
  4 36  1  0
 36 37  2  0
 37  2  1  0
 35  5  2  0
 34  7  1  0
 30  9  1  0
 28 13  1  0
 26 20  2  0
  1 38  1  0
  1 39  1  0
  1 40  1  0
  3 41  1  0
  6 42  1  0
 10 43  1  0
 10 44  1  0
 11 45  1  0
 11 46  1  0
 15 47  1  0
 18 48  1  0
 18 49  1  0
 18 50  1  0
 19 51  1  0
 19 52  1  0
 21 53  1  0
 22 54  1  0
 25 55  1  0
 26 56  1  0
 27 57  1  0
 29 58  1  0
 29 59  1  0
 30 60  1  0
 30 61  1  0
 32 62  1  0
 35 63  1  0
 36 64  1  0
M  END
>  <meeko>  (5) 
{"is_sidechain": false}

>  <vina_affinity_kcal_mol>  (5) 
-8.701

>  <pose_rank>  (5) 
5

$$$$

     RDKit          3D

 64 69  0  0  0  0  0  0  0  0999 V2000
  -39.5350  158.9850   -0.9160 C   0  0  0  0  0  0  0  0  0  0  0  0
  -39.4220  158.6780    0.4890 N   0  0  0  0  0  0  0  0  0  0  0  0
  -38.2910  158.3210    1.1630 C   0  0  0  0  0  0  0  0  0  0  0  0
  -38.6740  158.1290    2.4700 C   0  0  0  0  0  0  0  0  0  0  0  0
  -37.8500  157.7380    3.6040 C   0  0  0  0  0  0  0  0  0  0  0  0
  -37.3690  156.4300    3.8700 C   0  0  0  0  0  0  0  0  0  0  0  0
  -36.6440  156.4880    5.0460 C   0  0  0  0  0  0  0  0  0  0  0  0
  -35.9150  155.5250    5.8290 C   0  0  0  0  0  0  0  0  0  0  0  0
  -35.8680  154.1610    5.5710 N   0  0  0  0  0  0  0  0  0  0  0  0
  -37.0150  153.4300    5.0030 C   0  0  0  0  0  0  0  0  0  0  0  0
  -37.1850  152.0180    5.6050 C   0  0  0  0  0  0  0  0  0  0  0  0
  -35.9580  151.2370    5.4560 N   0  0  0  0  0  0  0  0  0  0  0  0
  -36.0020  149.9060    5.8140 C   0  0  0  0  0  0  0  0  0  0  0  0
  -35.0930  149.0650    5.2950 N   0  0  0  0  0  0  0  0  0  0  0  0
  -35.1350  147.7710    5.6800 C   0  0  0  0  0  0  0  0  0  0  0  0
  -36.0340  147.2570    6.5880 C   0  0  0  0  0  0  0  0  0  0  0  0
  -36.0890  145.7930    7.0000 C   0  0  1  0  0  0  0  0  0  0  0  0
  -37.5850  145.3980    7.0090 C   0  0  0  0  0  0  0  0  0  0  0  0
  -35.4620  144.9160    5.9890 N   0  0  0  0  0  0  0  0  0  0  0  0
  -35.3640  145.5330    8.3410 C   0  0  0  0  0  0  0  0  0  0  0  0
  -35.6960  144.3880    9.1040 C   0  0  0  0  0  0  0  0  0  0  0  0
  -35.0720  144.1230   10.3250 C   0  0  0  0  0  0  0  0  0  0  0  0
  -34.1120  145.0020   10.8050 C   0  0  0  0  0  0  0  0  0  0  0  0
  -33.5140  144.7510   11.9760 F   0  0  0  0  0  0  0  0  0  0  0  0
  -33.7670  146.1370   10.0870 C   0  0  0  0  0  0  0  0  0  0  0  0
  -34.3880  146.4030    8.8630 C   0  0  0  0  0  0  0  0  0  0  0  0
  -36.9340  148.1980    7.0490 C   0  0  0  0  0  0  0  0  0  0  0  0
  -36.9340  149.4980    6.6880 N   0  0  0  0  0  0  0  0  0  0  0  0
  -34.6820  151.9510    5.5680 C   0  0  0  0  0  0  0  0  0  0  0  0
  -34.8570  153.3240    6.2490 C   0  0  0  0  0  0  0  0  0  0  0  0
  -35.2450  155.9910    6.8470 N   0  0  0  0  0  0  0  0  0  0  0  0
  -35.2990  157.3260    7.1530 C   0  0  0  0  0  0  0  0  0  0  0  0
  -35.9600  158.2460    6.5270 N   0  0  0  0  0  0  0  0  0  0  0  0
  -36.6280  157.7880    5.4600 N   0  0  0  0  0  0  0  0  0  0  0  0
  -37.3800  158.5530    4.6100 C   0  0  0  0  0  0  0  0  0  0  0  0
  -40.0580  158.3940    2.4780 C   0  0  0  0  0  0  0  0  0  0  0  0
  -40.5190  158.7330    1.2700 N   0  0  0  0  0  0  0  0  0  0  0  0
  -39.9126  160.0109   -1.0379 H   0  0  0  0  0  0  0  0  0  0  0  0
  -38.5464  158.8993   -1.3907 H   0  0  0  0  0  0  0  0  0  0  0  0
  -40.2321  158.2789   -1.3907 H   0  0  0  0  0  0  0  0  0  0  0  0
  -37.2791  158.2094    0.7462 H   0  0  0  0  0  0  0  0  0  0  0  0
  -37.5411  155.5349    3.2543 H   0  0  0  0  0  0  0  0  0  0  0  0
  -37.9307  154.0074    5.1981 H   0  0  0  0  0  0  0  0  0  0  0  0
  -36.8290  153.3095    3.9256 H   0  0  0  0  0  0  0  0  0  0  0  0
  -37.4266  152.1089    6.6743 H   0  0  0  0  0  0  0  0  0  0  0  0
  -37.9969  151.5031    5.0705 H   0  0  0  0  0  0  0  0  0  0  0  0
  -34.4012  147.0807    5.2383 H   0  0  0  0  0  0  0  0  0  0  0  0
  -37.9337  145.3059    8.0482 H   0  0  0  0  0  0  0  0  0  0  0  0
  -38.1717  146.1720    6.4926 H   0  0  0  0  0  0  0  0  0  0  0  0
  -37.7131  144.4352    6.4926 H   0  0  0  0  0  0  0  0  0  0  0  0
  -34.9350  145.4970    5.3370 H   0  0  0  0  0  0  0  0  0  0  0  0
  -36.1930  144.4800    5.4270 H   0  0  0  0  0  0  0  0  0  0  0  0
  -36.4609  143.6928    8.7277 H   0  0  0  0  0  0  0  0  0  0  0  0
  -35.3394  143.2250   10.9012 H   0  0  0  0  0  0  0  0  0  0  0  0
  -33.0058  146.8271   10.4799 H   0  0  0  0  0  0  0  0  0  0  0  0
  -34.1098  147.3057    8.2993 H   0  0  0  0  0  0  0  0  0  0  0  0
  -37.7043  147.8643    7.7599 H   0  0  0  0  0  0  0  0  0  0  0  0
  -33.9843  151.3437    6.1633 H   0  0  0  0  0  0  0  0  0  0  0  0
  -34.2910  152.1177    4.5534 H   0  0  0  0  0  0  0  0  0  0  0  0
  -35.1709  153.1646    7.2911 H   0  0  0  0  0  0  0  0  0  0  0  0
  -33.8931  153.8513    6.1961 H   0  0  0  0  0  0  0  0  0  0  0  0
  -34.7161  157.6515    8.0273 H   0  0  0  0  0  0  0  0  0  0  0  0
  -37.5750  159.6307    4.7124 H   0  0  0  0  0  0  0  0  0  0  0  0
  -40.6882  158.3292    3.3773 H   0  0  0  0  0  0  0  0  0  0  0  0
  1  2  1  0
  2  3  1  0
  3  4  2  0
  4  5  1  0
  5  6  1  0
  6  7  2  0
  7  8  1  0
  8  9  1  0
  9 10  1  0
 10 11  1  0
 11 12  1  0
 12 13  1  0
 13 14  2  0
 14 15  1  0
 15 16  2  0
 16 17  1  0
 17 18  1  0
 17 19  1  6
 17 20  1  0
 20 21  1  0
 21 22  2  0
 22 23  1  0
 23 24  1  0
 23 25  2  0
 25 26  1  0
 16 27  1  0
 27 28  2  0
 12 29  1  0
 29 30  1  0
  8 31  2  0
 31 32  1  0
 32 33  2  0
 33 34  1  0
 34 35  1  0
  4 36  1  0
 36 37  2  0
 37  2  1  0
 35  5  2  0
 34  7  1  0
 30  9  1  0
 28 13  1  0
 26 20  2  0
  1 38  1  0
  1 39  1  0
  1 40  1  0
  3 41  1  0
  6 42  1  0
 10 43  1  0
 10 44  1  0
 11 45  1  0
 11 46  1  0
 15 47  1  0
 18 48  1  0
 18 49  1  0
 18 50  1  0
 19 51  1  0
 19 52  1  0
 21 53  1  0
 22 54  1  0
 25 55  1  0
 26 56  1  0
 27 57  1  0
 29 58  1  0
 29 59  1  0
 30 60  1  0
 30 61  1  0
 32 62  1  0
 35 63  1  0
 36 64  1  0
M  END
>  <meeko>  (6) 
{"is_sidechain": false}

>  <vina_affinity_kcal_mol>  (6) 
-8.528

>  <pose_rank>  (6) 
6

$$$$

     RDKit          3D

 64 69  0  0  0  0  0  0  0  0999 V2000
  -32.6050  146.8510   10.3550 C   0  0  0  0  0  0  0  0  0  0  0  0
  -33.3170  148.0410    9.9580 N   0  0  0  0  0  0  0  0  0  0  0  0
  -34.0510  148.2170    8.8220 C   0  0  0  0  0  0  0  0  0  0  0  0
  -34.5360  149.5030    8.8810 C   0  0  0  0  0  0  0  0  0  0  0  0
  -35.3780  150.1940    7.9160 C   0  0  0  0  0  0  0  0  0  0  0  0
  -36.2550  149.5780    6.9870 C   0  0  0  0  0  0  0  0  0  0  0  0
  -36.8500  150.5860    6.2490 C   0  0  0  0  0  0  0  0  0  0  0  0
  -37.8140  150.6190    5.1820 C   0  0  0  0  0  0  0  0  0  0  0  0
  -38.3340  149.5000    4.5440 N   0  0  0  0  0  0  0  0  0  0  0  0
  -37.5360  148.2800    4.3240 C   0  0  0  0  0  0  0  0  0  0  0  0
  -37.8170  147.6150    2.9600 C   0  0  0  0  0  0  0  0  0  0  0  0
  -39.2420  147.3260    2.8060 N   0  0  0  0  0  0  0  0  0  0  0  0
  -39.6300  146.5980    1.6990 C   0  0  0  0  0  0  0  0  0  0  0  0
  -38.6820  146.0680    0.9100 N   0  0  0  0  0  0  0  0  0  0  0  0
  -39.0810  145.3350   -0.1520 C   0  0  0  0  0  0  0  0  0  0  0  0
  -40.3970  145.0750   -0.4700 C   0  0  0  0  0  0  0  0  0  0  0  0
  -40.8380  144.2660   -1.6820 C   0  0  1  0  0  0  0  0  0  0  0  0
  -39.6800  143.2880   -1.9970 C   0  0  0  0  0  0  0  0  0  0  0  0
  -41.9990  143.4050   -1.3710 N   0  0  0  0  0  0  0  0  0  0  0  0
  -41.2420  145.1650   -2.8720 C   0  0  0  0  0  0  0  0  0  0  0  0
  -42.2760  144.7470   -3.7440 C   0  0  0  0  0  0  0  0  0  0  0  0
  -42.6630  145.5250   -4.8370 C   0  0  0  0  0  0  0  0  0  0  0  0
  -42.0190  146.7300   -5.0790 C   0  0  0  0  0  0  0  0  0  0  0  0
  -42.3880  147.4770   -6.1270 F   0  0  0  0  0  0  0  0  0  0  0  0
  -40.9980  147.1670   -4.2490 C   0  0  0  0  0  0  0  0  0  0  0  0
  -40.6090  146.3910   -3.1530 C   0  0  0  0  0  0  0  0  0  0  0  0
  -41.2900  145.6790    0.3920 C   0  0  0  0  0  0  0  0  0  0  0  0
  -40.9370  146.4230    1.4610 N   0  0  0  0  0  0  0  0  0  0  0  0
  -40.1930  148.2790    3.3850 C   0  0  0  0  0  0  0  0  0  0  0  0
  -39.5270  149.6370    3.6840 C   0  0  0  0  0  0  0  0  0  0  0  0
  -38.2290  151.7980    4.8090 N   0  0  0  0  0  0  0  0  0  0  0  0
  -37.7110  152.9250    5.3920 C   0  0  0  0  0  0  0  0  0  0  0  0
  -36.8150  152.9830    6.3250 N   0  0  0  0  0  0  0  0  0  0  0  0
  -36.4030  151.7780    6.7410 N   0  0  0  0  0  0  0  0  0  0  0  0
  -35.4870  151.5550    7.7320 C   0  0  0  0  0  0  0  0  0  0  0  0
  -34.0350  150.0170   10.0930 C   0  0  0  0  0  0  0  0  0  0  0  0
  -33.2920  149.1250   10.7570 N   0  0  0  0  0  0  0  0  0  0  0  0
  -32.5706  146.7934   11.4530 H   0  0  0  0  0  0  0  0  0  0  0  0
  -33.1215  145.9649    9.9574 H   0  0  0  0  0  0  0  0  0  0  0  0
  -31.5800  146.8872    9.9574 H   0  0  0  0  0  0  0  0  0  0  0  0
  -34.2205  147.4811    8.0222 H   0  0  0  0  0  0  0  0  0  0  0  0
  -36.4300  148.4979    6.8740 H   0  0  0  0  0  0  0  0  0  0  0  0
  -36.4695  148.5451    4.3719 H   0  0  0  0  0  0  0  0  0  0  0  0
  -37.8146  147.5584    5.1061 H   0  0  0  0  0  0  0  0  0  0  0  0
  -37.4979  148.2939    2.1555 H   0  0  0  0  0  0  0  0  0  0  0  0
  -37.2581  146.6690    2.9076 H   0  0  0  0  0  0  0  0  0  0  0  0
  -38.3030  144.9171   -0.8078 H   0  0  0  0  0  0  0  0  0  0  0  0
  -39.2445  142.9202   -1.0562 H   0  0  0  0  0  0  0  0  0  0  0  0
  -40.0659  142.4383   -2.5793 H   0  0  0  0  0  0  0  0  0  0  0  0
  -38.9068  143.8106   -2.5793 H   0  0  0  0  0  0  0  0  0  0  0  0
  -42.8490  143.9610   -1.4620 H   0  0  0  0  0  0  0  0  0  0  0  0
  -41.9600  143.1350   -0.3890 H   0  0  0  0  0  0  0  0  0  0  0  0
  -42.7848  143.7899   -3.5567 H   0  0  0  0  0  0  0  0  0  0  0  0
  -43.4718  145.1854   -5.5008 H   0  0  0  0  0  0  0  0  0  0  0  0
  -40.4944  148.1235   -4.4526 H   0  0  0  0  0  0  0  0  0  0  0  0
  -39.7965  146.7434   -2.5006 H   0  0  0  0  0  0  0  0  0  0  0  0
  -42.3636  145.5446    0.1938 H   0  0  0  0  0  0  0  0  0  0  0  0
  -41.0185  148.4352    2.6749 H   0  0  0  0  0  0  0  0  0  0  0  0
  -40.5630  147.8618    4.3332 H   0  0  0  0  0  0  0  0  0  0  0  0
  -39.2259  150.1002    2.7328 H   0  0  0  0  0  0  0  0  0  0  0  0
  -40.2584  150.2592    4.2205 H   0  0  0  0  0  0  0  0  0  0  0  0
  -38.0996  153.8871    5.0268 H   0  0  0  0  0  0  0  0  0  0  0  0
  -34.9337  152.3278    8.2857 H   0  0  0  0  0  0  0  0  0  0  0  0
  -34.2327  151.0375   10.4529 H   0  0  0  0  0  0  0  0  0  0  0  0
  1  2  1  0
  2  3  1  0
  3  4  2  0
  4  5  1  0
  5  6  1  0
  6  7  2  0
  7  8  1  0
  8  9  1  0
  9 10  1  0
 10 11  1  0
 11 12  1  0
 12 13  1  0
 13 14  2  0
 14 15  1  0
 15 16  2  0
 16 17  1  0
 17 18  1  0
 17 19  1  1
 17 20  1  0
 20 21  1  0
 21 22  2  0
 22 23  1  0
 23 24  1  0
 23 25  2  0
 25 26  1  0
 16 27  1  0
 27 28  2  0
 12 29  1  0
 29 30  1  0
  8 31  2  0
 31 32  1  0
 32 33  2  0
 33 34  1  0
 34 35  1  0
  4 36  1  0
 36 37  2  0
 37  2  1  0
 35  5  2  0
 34  7  1  0
 30  9  1  0
 28 13  1  0
 26 20  2  0
  1 38  1  0
  1 39  1  0
  1 40  1  0
  3 41  1  0
  6 42  1  0
 10 43  1  0
 10 44  1  0
 11 45  1  0
 11 46  1  0
 15 47  1  0
 18 48  1  0
 18 49  1  0
 18 50  1  0
 19 51  1  0
 19 52  1  0
 21 53  1  0
 22 54  1  0
 25 55  1  0
 26 56  1  0
 27 57  1  0
 29 58  1  0
 29 59  1  0
 30 60  1  0
 30 61  1  0
 32 62  1  0
 35 63  1  0
 36 64  1  0
M  END
>  <meeko>  (7) 
{"is_sidechain": false}

>  <vina_affinity_kcal_mol>  (7) 
-8.5

>  <pose_rank>  (7) 
7

$$$$

     RDKit          3D

 64 69  0  0  0  0  0  0  0  0999 V2000
  -42.7520  147.0400   -5.3660 C   0  0  0  0  0  0  0  0  0  0  0  0
  -42.1050  146.1200   -4.4630 N   0  0  0  0  0  0  0  0  0  0  0  0
  -41.0950  146.4010   -3.5900 C   0  0  0  0  0  0  0  0  0  0  0  0
  -40.8080  145.2180   -2.9500 C   0  0  0  0  0  0  0  0  0  0  0  0
  -39.8090  144.9670   -1.9220 C   0  0  0  0  0  0  0  0  0  0  0  0
  -39.6140  145.7390   -0.7470 C   0  0  0  0  0  0  0  0  0  0  0  0
  -38.5590  145.1750   -0.0530 C   0  0  0  0  0  0  0  0  0  0  0  0
  -37.8910  145.4770    1.1840 C   0  0  0  0  0  0  0  0  0  0  0  0
  -38.1490  146.5870    1.9780 N   0  0  0  0  0  0  0  0  0  0  0  0
  -38.5370  147.8890    1.4050 C   0  0  0  0  0  0  0  0  0  0  0  0
  -37.9120  149.0850    2.1530 C   0  0  0  0  0  0  0  0  0  0  0  0
  -38.2400  149.0380    3.5770 N   0  0  0  0  0  0  0  0  0  0  0  0
  -37.8750  150.1190    4.3520 C   0  0  0  0  0  0  0  0  0  0  0  0
  -36.7650  150.0330    5.1020 N   0  0  0  0  0  0  0  0  0  0  0  0
  -36.4090  151.1130    5.8310 C   0  0  0  0  0  0  0  0  0  0  0  0
  -37.0950  152.3070    5.8430 C   0  0  0  0  0  0  0  0  0  0  0  0
  -36.6990  153.5120    6.6850 C   0  0  1  0  0  0  0  0  0  0  0  0
  -38.0200  154.1600    7.1660 C   0  0  0  0  0  0  0  0  0  0  0  0
  -35.9930  153.1080    7.9190 N   0  0  0  0  0  0  0  0  0  0  0  0
  -35.7670  154.4800    5.9220 C   0  0  0  0  0  0  0  0  0  0  0  0
  -34.3640  154.3370    6.0380 C   0  0  0  0  0  0  0  0  0  0  0  0
  -33.4890  155.1980    5.3730 C   0  0  0  0  0  0  0  0  0  0  0  0
  -34.0010  156.2200    4.5880 C   0  0  0  0  0  0  0  0  0  0  0  0
  -33.1640  157.0480    3.9510 F   0  0  0  0  0  0  0  0  0  0  0  0
  -35.3710  156.3940    4.4570 C   0  0  0  0  0  0  0  0  0  0  0  0
  -36.2500  155.5320    5.1190 C   0  0  0  0  0  0  0  0  0  0  0  0
  -38.2280  152.2860    5.0540 C   0  0  0  0  0  0  0  0  0  0  0  0
  -38.6250  151.2300    4.3130 N   0  0  0  0  0  0  0  0  0  0  0  0
  -38.3210  147.7190    4.2100 C   0  0  0  0  0  0  0  0  0  0  0  0
  -37.6270  146.6360    3.3590 C   0  0  0  0  0  0  0  0  0  0  0  0
  -36.9850  144.6250    1.5800 N   0  0  0  0  0  0  0  0  0  0  0  0
  -36.6790  143.5370    0.8040 C   0  0  0  0  0  0  0  0  0  0  0  0
  -37.2020  143.2170   -0.3360 N   0  0  0  0  0  0  0  0  0  0  0  0
  -38.1560  144.0660   -0.7400 N   0  0  0  0  0  0  0  0  0  0  0  0
  -38.8860  143.9450   -1.8910 C   0  0  0  0  0  0  0  0  0  0  0  0
  -41.7030  144.2840   -3.5110 C   0  0  0  0  0  0  0  0  0  0  0  0
  -42.4990  144.8320   -4.4340 N   0  0  0  0  0  0  0  0  0  0  0  0
  -43.2900  147.8050   -4.7869 H   0  0  0  0  0  0  0  0  0  0  0  0
  -41.9951  147.5250   -5.9999 H   0  0  0  0  0  0  0  0  0  0  0  0
  -43.4644  146.4917   -5.9999 H   0  0  0  0  0  0  0  0  0  0  0  0
  -40.6093  147.3750   -3.4305 H   0  0  0  0  0  0  0  0  0  0  0  0
  -40.1948  146.6228   -0.4442 H   0  0  0  0  0  0  0  0  0  0  0  0
  -38.2098  147.9219    0.3553 H   0  0  0  0  0  0  0  0  0  0  0  0
  -39.6296  147.9772    1.4965 H   0  0  0  0  0  0  0  0  0  0  0  0
  -36.8189  149.0531    2.0338 H   0  0  0  0  0  0  0  0  0  0  0  0
  -38.3173  150.0156    1.7292 H   0  0  0  0  0  0  0  0  0  0  0  0
  -35.5090  151.0332    6.4584 H   0  0  0  0  0  0  0  0  0  0  0  0
  -38.0436  154.1716    8.2657 H   0  0  0  0  0  0  0  0  0  0  0  0
  -38.0820  155.1908    6.7871 H   0  0  0  0  0  0  0  0  0  0  0  0
  -38.8731  153.5781    6.7871 H   0  0  0  0  0  0  0  0  0  0  0  0
  -35.9930  152.0900    7.9750 H   0  0  0  0  0  0  0  0  0  0  0  0
  -36.5300  153.4190    8.7270 H   0  0  0  0  0  0  0  0  0  0  0  0
  -33.9545  153.5312    6.6648 H   0  0  0  0  0  0  0  0  0  0  0  0
  -32.4013  155.0666    5.4711 H   0  0  0  0  0  0  0  0  0  0  0  0
  -35.7652  157.2095    3.8328 H   0  0  0  0  0  0  0  0  0  0  0  0
  -37.3350  155.6772    5.0114 H   0  0  0  0  0  0  0  0  0  0  0  0
  -38.8502  153.1927    5.0275 H   0  0  0  0  0  0  0  0  0  0  0  0
  -37.8335  147.7654    5.1950 H   0  0  0  0  0  0  0  0  0  0  0  0
  -39.3830  147.4500    4.3089 H   0  0  0  0  0  0  0  0  0  0  0  0
  -36.5491  146.8522    3.3221 H   0  0  0  0  0  0  0  0  0  0  0  0
  -37.8258  145.6612    3.8283 H   0  0  0  0  0  0  0  0  0  0  0  0
  -35.9032  142.8612    1.1932 H   0  0  0  0  0  0  0  0  0  0  0  0
  -38.7580  143.1670   -2.6580 H   0  0  0  0  0  0  0  0  0  0  0  0
  -41.7417  143.2235   -3.2215 H   0  0  0  0  0  0  0  0  0  0  0  0
  1  2  1  0
  2  3  1  0
  3  4  2  0
  4  5  1  0
  5  6  1  0
  6  7  2  0
  7  8  1  0
  8  9  1  0
  9 10  1  0
 10 11  1  0
 11 12  1  0
 12 13  1  0
 13 14  2  0
 14 15  1  0
 15 16  2  0
 16 17  1  0
 17 18  1  0
 17 19  1  1
 17 20  1  0
 20 21  1  0
 21 22  2  0
 22 23  1  0
 23 24  1  0
 23 25  2  0
 25 26  1  0
 16 27  1  0
 27 28  2  0
 12 29  1  0
 29 30  1  0
  8 31  2  0
 31 32  1  0
 32 33  2  0
 33 34  1  0
 34 35  1  0
  4 36  1  0
 36 37  2  0
 37  2  1  0
 35  5  2  0
 34  7  1  0
 30  9  1  0
 28 13  1  0
 26 20  2  0
  1 38  1  0
  1 39  1  0
  1 40  1  0
  3 41  1  0
  6 42  1  0
 10 43  1  0
 10 44  1  0
 11 45  1  0
 11 46  1  0
 15 47  1  0
 18 48  1  0
 18 49  1  0
 18 50  1  0
 19 51  1  0
 19 52  1  0
 21 53  1  0
 22 54  1  0
 25 55  1  0
 26 56  1  0
 27 57  1  0
 29 58  1  0
 29 59  1  0
 30 60  1  0
 30 61  1  0
 32 62  1  0
 35 63  1  0
 36 64  1  0
M  END
>  <meeko>  (8) 
{"is_sidechain": false}

>  <vina_affinity_kcal_mol>  (8) 
-8.397

>  <pose_rank>  (8) 
8

$$$$

     RDKit          3D

 64 69  0  0  0  0  0  0  0  0999 V2000
  -45.9160  145.4890   11.1320 C   0  0  0  0  0  0  0  0  0  0  0  0
  -45.3510  144.9800    9.9060 N   0  0  0  0  0  0  0  0  0  0  0  0
  -44.4350  145.5980    9.1070 C   0  0  0  0  0  0  0  0  0  0  0  0
  -44.2020  144.7340    8.0610 C   0  0  0  0  0  0  0  0  0  0  0  0
  -43.3070  144.9110    6.9280 C   0  0  0  0  0  0  0  0  0  0  0  0
  -42.2050  145.8020    6.8710 C   0  0  0  0  0  0  0  0  0  0  0  0
  -41.6330  145.6730    5.6180 C   0  0  0  0  0  0  0  0  0  0  0  0
  -40.5110  146.2810    4.9550 C   0  0  0  0  0  0  0  0  0  0  0  0
  -39.7390  147.3110    5.4780 N   0  0  0  0  0  0  0  0  0  0  0  0
  -40.3130  148.3620    6.3390 C   0  0  0  0  0  0  0  0  0  0  0  0
  -39.7080  149.7560    6.0690 C   0  0  0  0  0  0  0  0  0  0  0  0
  -38.2520  149.7270    6.2010 N   0  0  0  0  0  0  0  0  0  0  0  0
  -37.5820  150.9310    6.1330 C   0  0  0  0  0  0  0  0  0  0  0  0
  -38.2370  152.0560    6.4580 N   0  0  0  0  0  0  0  0  0  0  0  0
  -37.5550  153.2220    6.4130 C   0  0  0  0  0  0  0  0  0  0  0  0
  -36.2240  153.3330    6.0770 C   0  0  0  0  0  0  0  0  0  0  0  0
  -35.4690  154.6530    6.0070 C   0  0  1  0  0  0  0  0  0  0  0  0
  -35.1200  155.0320    7.4670 C   0  0  0  0  0  0  0  0  0  0  0  0
  -34.1670  154.5030    5.3240 N   0  0  0  0  0  0  0  0  0  0  0  0
  -36.2590  155.7420    5.2480 C   0  0  0  0  0  0  0  0  0  0  0  0
  -36.1450  157.0950    5.6480 C   0  0  0  0  0  0  0  0  0  0  0  0
  -36.8510  158.1080    4.9950 C   0  0  0  0  0  0  0  0  0  0  0  0
  -37.6870  157.7840    3.9370 C   0  0  0  0  0  0  0  0  0  0  0  0
  -38.3660  158.7530    3.3110 F   0  0  0  0  0  0  0  0  0  0  0  0
  -37.8290  156.4680    3.5230 C   0  0  0  0  0  0  0  0  0  0  0  0
  -37.1220  155.4520    4.1730 C   0  0  0  0  0  0  0  0  0  0  0  0
  -35.6480  152.1230    5.7440 C   0  0  0  0  0  0  0  0  0  0  0  0
  -36.2910  150.9360    5.7700 N   0  0  0  0  0  0  0  0  0  0  0  0
  -37.5570  148.5120    5.7670 C   0  0  0  0  0  0  0  0  0  0  0  0
  -38.4440  147.6460    4.8510 C   0  0  0  0  0  0  0  0  0  0  0  0
  -40.2030  145.8070    3.7790 N   0  0  0  0  0  0  0  0  0  0  0  0
  -40.9640  144.8150    3.2170 C   0  0  0  0  0  0  0  0  0  0  0  0
  -42.0080  144.2460    3.7270 N   0  0  0  0  0  0  0  0  0  0  0  0
  -42.3180  144.7010    4.9480 N   0  0  0  0  0  0  0  0  0  0  0  0
  -43.3540  144.2510    5.7200 C   0  0  0  0  0  0  0  0  0  0  0  0
  -45.0290  143.6240    8.3260 C   0  0  0  0  0  0  0  0  0  0  0  0
  -45.7310  143.7690    9.4540 N   0  0  0  0  0  0  0  0  0  0  0  0
  -45.4048  145.0285   11.9903 H   0  0  0  0  0  0  0  0  0  0  0  0
  -45.7858  146.5806   11.1703 H   0  0  0  0  0  0  0  0  0  0  0  0
  -46.9881  145.2460   11.1703 H   0  0  0  0  0  0  0  0  0  0  0  0
  -43.9761  146.5850    9.2658 H   0  0  0  0  0  0  0  0  0  0  0  0
  -41.8673  146.4723    7.6751 H   0  0  0  0  0  0  0  0  0  0  0  0
  -41.3973  148.4092    6.1599 H   0  0  0  0  0  0  0  0  0  0  0  0
  -40.0816  148.0978    7.3814 H   0  0  0  0  0  0  0  0  0  0  0  0
  -39.9710  150.0713    5.0485 H   0  0  0  0  0  0  0  0  0  0  0  0
  -40.1139  150.4642    6.8063 H   0  0  0  0  0  0  0  0  0  0  0  0
  -38.0998  154.1447    6.6615 H   0  0  0  0  0  0  0  0  0  0  0  0
  -35.6998  154.4023    8.1579 H   0  0  0  0  0  0  0  0  0  0  0  0
  -34.0454  154.8731    7.6402 H   0  0  0  0  0  0  0  0  0  0  0  0
  -35.3668  156.0899    7.6402 H   0  0  0  0  0  0  0  0  0  0  0  0
  -34.3170  154.0110    4.4430 H   0  0  0  0  0  0  0  0  0  0  0  0
  -33.5700  153.8870    5.8750 H   0  0  0  0  0  0  0  0  0  0  0  0
  -35.4869  157.3540    6.4905 H   0  0  0  0  0  0  0  0  0  0  0  0
  -36.7447  159.1543    5.3173 H   0  0  0  0  0  0  0  0  0  0  0  0
  -38.4972  156.2238    2.6840 H   0  0  0  0  0  0  0  0  0  0  0  0
  -37.2414  154.4104    3.8400 H   0  0  0  0  0  0  0  0  0  0  0  0
  -34.5920  152.1264    5.4362 H   0  0  0  0  0  0  0  0  0  0  0  0
  -36.6483  148.7979    5.2170 H   0  0  0  0  0  0  0  0  0  0  0  0
  -37.3066  147.9216    6.6607 H   0  0  0  0  0  0  0  0  0  0  0  0
  -38.6346  148.1978    3.9187 H   0  0  0  0  0  0  0  0  0  0  0  0
  -37.9098  146.7039    4.6583 H   0  0  0  0  0  0  0  0  0  0  0  0
  -40.6525  144.4638    2.2222 H   0  0  0  0  0  0  0  0  0  0  0  0
  -44.0958  143.4935    5.4268 H   0  0  0  0  0  0  0  0  0  0  0  0
  -45.0899  142.7378    7.6772 H   0  0  0  0  0  0  0  0  0  0  0  0
  1  2  1  0
  2  3  1  0
  3  4  2  0
  4  5  1  0
  5  6  1  0
  6  7  2  0
  7  8  1  0
  8  9  1  0
  9 10  1  0
 10 11  1  0
 11 12  1  0
 12 13  1  0
 13 14  2  0
 14 15  1  0
 15 16  2  0
 16 17  1  0
 17 18  1  0
 17 19  1  6
 17 20  1  0
 20 21  1  0
 21 22  2  0
 22 23  1  0
 23 24  1  0
 23 25  2  0
 25 26  1  0
 16 27  1  0
 27 28  2  0
 12 29  1  0
 29 30  1  0
  8 31  2  0
 31 32  1  0
 32 33  2  0
 33 34  1  0
 34 35  1  0
  4 36  1  0
 36 37  2  0
 37  2  1  0
 35  5  2  0
 34  7  1  0
 30  9  1  0
 28 13  1  0
 26 20  2  0
  1 38  1  0
  1 39  1  0
  1 40  1  0
  3 41  1  0
  6 42  1  0
 10 43  1  0
 10 44  1  0
 11 45  1  0
 11 46  1  0
 15 47  1  0
 18 48  1  0
 18 49  1  0
 18 50  1  0
 19 51  1  0
 19 52  1  0
 21 53  1  0
 22 54  1  0
 25 55  1  0
 26 56  1  0
 27 57  1  0
 29 58  1  0
 29 59  1  0
 30 60  1  0
 30 61  1  0
 32 62  1  0
 35 63  1  0
 36 64  1  0
M  END
>  <meeko>  (9) 
{"is_sidechain": false}

>  <vina_affinity_kcal_mol>  (9) 
-8.338

>  <pose_rank>  (9) 
9

$$$$

     RDKit          3D

 64 69  0  0  0  0  0  0  0  0999 V2000
  -41.3200  144.8010   -3.6790 C   0  0  0  0  0  0  0  0  0  0  0  0
  -41.8380  144.6740   -2.3390 N   0  0  0  0  0  0  0  0  0  0  0  0
  -41.2130  145.0310   -1.1800 C   0  0  0  0  0  0  0  0  0  0  0  0
  -42.0900  144.7230   -0.1660 C   0  0  0  0  0  0  0  0  0  0  0  0
  -41.9130  144.9040    1.2670 C   0  0  0  0  0  0  0  0  0  0  0  0
  -41.4070  146.0690    1.9000 C   0  0  0  0  0  0  0  0  0  0  0  0
  -41.3860  145.8220    3.2610 C   0  0  0  0  0  0  0  0  0  0  0  0
  -40.9960  146.5840    4.4170 C   0  0  0  0  0  0  0  0  0  0  0  0
  -40.4080  147.8420    4.3800 N   0  0  0  0  0  0  0  0  0  0  0  0
  -39.4820  148.2440    3.3050 C   0  0  0  0  0  0  0  0  0  0  0  0
  -38.3110  149.1120    3.8140 C   0  0  0  0  0  0  0  0  0  0  0  0
  -38.8060  150.2890    4.5270 N   0  0  0  0  0  0  0  0  0  0  0  0
  -37.8810  151.2360    4.9130 C   0  0  0  0  0  0  0  0  0  0  0  0
  -36.7020  150.8250    5.4060 N   0  0  0  0  0  0  0  0  0  0  0  0
  -35.7980  151.7680    5.7530 C   0  0  0  0  0  0  0  0  0  0  0  0
  -35.9940  153.1240    5.6140 C   0  0  0  0  0  0  0  0  0  0  0  0
  -34.9790  154.1810    6.0270 C   0  0  1  0  0  0  0  0  0  0  0  0
  -34.5680  153.8440    7.4810 C   0  0  0  0  0  0  0  0  0  0  0  0
  -33.7330  154.0790    5.2390 N   0  0  0  0  0  0  0  0  0  0  0  0
  -35.5180  155.6170    5.8450 C   0  0  0  0  0  0  0  0  0  0  0  0
  -35.9560  156.3480    6.9750 C   0  0  0  0  0  0  0  0  0  0  0  0
  -36.4600  157.6440    6.8510 C   0  0  0  0  0  0  0  0  0  0  0  0
  -36.5410  158.2280    5.5950 C   0  0  0  0  0  0  0  0  0  0  0  0
  -37.0250  159.4700    5.4740 F   0  0  0  0  0  0  0  0  0  0  0  0
  -36.1270  157.5390    4.4650 C   0  0  0  0  0  0  0  0  0  0  0  0
  -35.6200  156.2410    4.5860 C   0  0  0  0  0  0  0  0  0  0  0  0
  -37.2420  153.4410    5.1160 C   0  0  0  0  0  0  0  0  0  0  0  0
  -38.1780  152.5340    4.7620 N   0  0  0  0  0  0  0  0  0  0  0  0
  -40.0250  150.1340    5.3250 C   0  0  0  0  0  0  0  0  0  0  0  0
  -40.3310  148.6500    5.6140 C   0  0  0  0  0  0  0  0  0  0  0  0
  -41.2330  146.0410    5.5790 N   0  0  0  0  0  0  0  0  0  0  0  0
  -41.7790  144.7860    5.6530 C   0  0  0  0  0  0  0  0  0  0  0  0
  -42.1180  144.0210    4.6650 N   0  0  0  0  0  0  0  0  0  0  0  0
  -41.9100  144.5790    3.4650 N   0  0  0  0  0  0  0  0  0  0  0  0
  -42.2070  143.9990    2.2620 C   0  0  0  0  0  0  0  0  0  0  0  0
  -43.2160  144.1840   -0.8210 C   0  0  0  0  0  0  0  0  0  0  0  0
  -43.0670  144.1550   -2.1490 N   0  0  0  0  0  0  0  0  0  0  0  0
  -40.2525  145.0627   -3.6362 H   0  0  0  0  0  0  0  0  0  0  0  0
  -41.4424  143.8462   -4.2114 H   0  0  0  0  0  0  0  0  0  0  0  0
  -41.8701  145.5909   -4.2114 H   0  0  0  0  0  0  0  0  0  0  0  0
  -40.2117  145.4748   -1.0773 H   0  0  0  0  0  0  0  0  0  0  0  0
  -41.0902  146.9966    1.4009 H   0  0  0  0  0  0  0  0  0  0  0  0
  -39.0698  147.3367    2.8393 H   0  0  0  0  0  0  0  0  0  0  0  0
  -40.0536  148.8495    2.5863 H   0  0  0  0  0  0  0  0  0  0  0  0
  -37.6885  148.5134    4.4953 H   0  0  0  0  0  0  0  0  0  0  0  0
  -37.7201  149.4475    2.9490 H   0  0  0  0  0  0  0  0  0  0  0  0
  -34.8404  151.4292    6.1752 H   0  0  0  0  0  0  0  0  0  0  0  0
  -35.2239  154.3818    8.1814 H   0  0  0  0  0  0  0  0  0  0  0  0
  -34.6635  152.7608    7.6474 H   0  0  0  0  0  0  0  0  0  0  0  0
  -33.5246  154.1499    7.6474 H   0  0  0  0  0  0  0  0  0  0  0  0
  -33.1440  154.8830    5.4580 H   0  0  0  0  0  0  0  0  0  0  0  0
  -33.9550  154.1740    4.2490 H   0  0  0  0  0  0  0  0  0  0  0  0
  -35.8981  155.8855    7.9714 H   0  0  0  0  0  0  0  0  0  0  0  0
  -36.7903  158.1979    7.7421 H   0  0  0  0  0  0  0  0  0  0  0  0
  -36.1972  158.0127    3.4747 H   0  0  0  0  0  0  0  0  0  0  0  0
  -35.2962  155.6995    3.6849 H   0  0  0  0  0  0  0  0  0  0  0  0
  -37.4913  154.5060    4.9995 H   0  0  0  0  0  0  0  0  0  0  0  0
  -39.8960  150.6642    6.2801 H   0  0  0  0  0  0  0  0  0  0  0  0
  -40.8658  150.5531    4.7528 H   0  0  0  0  0  0  0  0  0  0  0  0
  -39.5344  148.2429    6.2541 H   0  0  0  0  0  0  0  0  0  0  0  0
  -41.3112  148.5994    6.1106 H   0  0  0  0  0  0  0  0  0  0  0  0
  -41.9478  144.3845    6.6631 H   0  0  0  0  0  0  0  0  0  0  0  0
  -42.6104  142.9862    2.1153 H   0  0  0  0  0  0  0  0  0  0  0  0
  -44.1157  143.8275   -0.2982 H   0  0  0  0  0  0  0  0  0  0  0  0
  1  2  1  0
  2  3  1  0
  3  4  2  0
  4  5  1  0
  5  6  1  0
  6  7  2  0
  7  8  1  0
  8  9  1  0
  9 10  1  0
 10 11  1  0
 11 12  1  0
 12 13  1  0
 13 14  2  0
 14 15  1  0
 15 16  2  0
 16 17  1  0
 17 18  1  0
 17 19  1  6
 17 20  1  0
 20 21  1  0
 21 22  2  0
 22 23  1  0
 23 24  1  0
 23 25  2  0
 25 26  1  0
 16 27  1  0
 27 28  2  0
 12 29  1  0
 29 30  1  0
  8 31  2  0
 31 32  1  0
 32 33  2  0
 33 34  1  0
 34 35  1  0
  4 36  1  0
 36 37  2  0
 37  2  1  0
 35  5  2  0
 34  7  1  0
 30  9  1  0
 28 13  1  0
 26 20  2  0
  1 38  1  0
  1 39  1  0
  1 40  1  0
  3 41  1  0
  6 42  1  0
 10 43  1  0
 10 44  1  0
 11 45  1  0
 11 46  1  0
 15 47  1  0
 18 48  1  0
 18 49  1  0
 18 50  1  0
 19 51  1  0
 19 52  1  0
 21 53  1  0
 22 54  1  0
 25 55  1  0
 26 56  1  0
 27 57  1  0
 29 58  1  0
 29 59  1  0
 30 60  1  0
 30 61  1  0
 32 62  1  0
 35 63  1  0
 36 64  1  0
M  END
>  <meeko>  (10) 
{"is_sidechain": false}

>  <vina_affinity_kcal_mol>  (10) 
-8.214

>  <pose_rank>  (10) 
10

$$$$
