
     RDKit          3D

 51 54  0  0  0  0  0  0  0  0999 V2000
  -38.2560  165.8010   -8.2470 C   0  0  0  0  0  0  0  0  0  0  0  0
  -37.4800  164.6970   -7.8050 O   0  0  0  0  0  0  0  0  0  0  0  0
  -37.8660  164.0680   -6.6470 C   0  0  0  0  0  0  0  0  0  0  0  0
  -37.9350  164.6890   -5.3950 C   0  0  0  0  0  0  0  0  0  0  0  0
  -38.3330  164.0040   -4.2550 C   0  0  0  0  0  0  0  0  0  0  0  0
  -38.3720  164.6660   -3.0850 N   0  0  0  0  0  0  0  0  0  0  0  0
  -38.7480  163.9940   -1.9760 C   0  0  0  0  0  0  0  0  0  0  0  0
  -39.1050  162.6650   -1.9700 C   0  0  0  0  0  0  0  0  0  0  0  0
  -39.0870  161.9920   -3.1880 C   0  0  0  0  0  0  0  0  0  0  0  0
  -39.3980  160.6480   -3.2430 O   0  0  0  0  0  0  0  0  0  0  0  0
  -39.3030  159.9300   -2.0730 C   0  0  0  0  0  0  0  0  0  0  0  0
  -38.2280  159.0940   -1.7650 C   0  0  0  0  0  0  0  0  0  0  0  0
  -38.1890  158.4200   -0.5380 C   0  0  0  0  0  0  0  0  0  0  0  0
  -39.2140  158.5810    0.3960 C   0  0  0  0  0  0  0  0  0  0  0  0
  -39.2290  157.9320    1.6550 N   0  0  0  0  0  0  0  0  0  0  0  0
  -38.1630  157.7300    2.5230 C   0  0  0  0  0  0  0  0  0  0  0  0
  -37.0050  158.0330    2.2740 O   0  0  0  0  0  0  0  0  0  0  0  0
  -38.6080  157.1460    3.6960 N   0  0  0  0  0  0  0  0  0  0  0  0
  -37.7900  156.7470    4.7370 C   0  0  0  0  0  0  0  0  0  0  0  0
  -37.5790  155.3890    5.0840 C   0  0  0  0  0  0  0  0  0  0  0  0
  -36.7100  155.4300    6.1450 C   0  0  0  0  0  0  0  0  0  0  0  0
  -36.0710  154.4140    6.9990 C   0  0  0  0  0  0  0  0  0  0  0  0
  -36.4090  156.7240    6.4190 O   0  0  0  0  0  0  0  0  0  0  0  0
  -37.0800  157.5470    5.5370 N   0  0  0  0  0  0  0  0  0  0  0  0
  -40.2760  159.4520    0.0820 C   0  0  0  0  0  0  0  0  0  0  0  0
  -41.5680  159.7190    1.2050 Cl  0  0  0  0  0  0  0  0  0  0  0  0
  -40.3200  160.1250   -1.1410 C   0  0  0  0  0  0  0  0  0  0  0  0
  -38.6790  162.6450   -4.3680 C   0  0  0  0  0  0  0  0  0  0  0  0
  -38.6120  162.0090   -5.6280 C   0  0  0  0  0  0  0  0  0  0  0  0
  -38.2090  162.7110   -6.7660 C   0  0  0  0  0  0  0  0  0  0  0  0
  -38.1180  162.1700   -8.0230 O   0  0  0  0  0  0  0  0  0  0  0  0
  -37.0620  161.2550   -8.2760 C   0  0  0  0  0  0  0  0  0  0  0  0
  -38.6420  166.3502   -7.3756 H   0  0  0  0  0  0  0  0  0  0  0  0
  -37.6288  166.4705   -8.8539 H   0  0  0  0  0  0  0  0  0  0  0  0
  -39.0983  165.4375   -8.8539 H   0  0  0  0  0  0  0  0  0  0  0  0
  -37.6657  165.7523   -5.3115 H   0  0  0  0  0  0  0  0  0  0  0  0
  -38.7703  164.5406   -1.0217 H   0  0  0  0  0  0  0  0  0  0  0  0
  -39.3932  162.1547   -1.0391 H   0  0  0  0  0  0  0  0  0  0  0  0
  -37.4093  158.9644   -2.4882 H   0  0  0  0  0  0  0  0  0  0  0  0
  -37.3420  157.7569   -0.3078 H   0  0  0  0  0  0  0  0  0  0  0  0
  -40.0850  157.4360    1.8610 H   0  0  0  0  0  0  0  0  0  0  0  0
  -39.5970  157.1090    3.8700 H   0  0  0  0  0  0  0  0  0  0  0  0
  -38.0156  154.4987    4.6078 H   0  0  0  0  0  0  0  0  0  0  0  0
  -36.2320  154.6701    8.0566 H   0  0  0  0  0  0  0  0  0  0  0  0
  -36.5122  153.4285    6.7891 H   0  0  0  0  0  0  0  0  0  0  0  0
  -34.9916  154.3848    6.7891 H   0  0  0  0  0  0  0  0  0  0  0  0
  -41.1538  160.8059   -1.3673 H   0  0  0  0  0  0  0  0  0  0  0  0
  -38.8811  160.9459   -5.7137 H   0  0  0  0  0  0  0  0  0  0  0  0
  -36.6497  160.8977   -7.3208 H   0  0  0  0  0  0  0  0  0  0  0  0
  -37.4473  160.4005   -8.8516 H   0  0  0  0  0  0  0  0  0  0  0  0
  -36.2710  161.7580   -8.8516 H   0  0  0  0  0  0  0  0  0  0  0  0
  1  2  1  0
  2  3  1  0
  3  4  1  0
  4  5  2  0
  5  6  1  0
  6  7  2  0
  7  8  1  0
  8  9  2  0
  9 10  1  0
 10 11  1  0
 11 12  1  0
 12 13  2  0
 13 14  1  0
 14 15  1  0
 15 16  1  0
 16 17  2  0
 16 18  1  0
 18 19  1  0
 19 20  1  0
 20 21  2  0
 21 22  1  0
 21 23  1  0
 23 24  1  0
 14 25  2  0
 25 26  1  0
 25 27  1  0
  9 28  1  0
 28 29  2  0
 29 30  1  0
 30 31  1  0
 31 32  1  0
 30  3  2  0
 28  5  1  0
 27 11  2  0
 24 19  2  0
  1 33  1  0
  1 34  1  0
  1 35  1  0
  4 36  1  0
  7 37  1  0
  8 38  1  0
 12 39  1  0
 13 40  1  0
 15 41  1  0
 18 42  1  0
 20 43  1  0
 22 44  1  0
 22 45  1  0
 22 46  1  0
 27 47  1  0
 29 48  1  0
 32 49  1  0
 32 50  1  0
 32 51  1  0
M  END
>  <meeko>  (1) 
{"is_sidechain": false}

>  <vina_affinity_kcal_mol>  (1) 
-10.526

>  <pose_rank>  (1) 
1

$$$$

     RDKit          3D

 51 54  0  0  0  0  0  0  0  0999 V2000
  -33.8120  152.2920    6.1780 C   0  0  0  0  0  0  0  0  0  0  0  0
  -35.1770  152.5200    6.4930 O   0  0  0  0  0  0  0  0  0  0  0  0
  -35.7470  153.6890    6.0510 C   0  0  0  0  0  0  0  0  0  0  0  0
  -35.2230  154.9650    6.2910 C   0  0  0  0  0  0  0  0  0  0  0  0
  -35.8420  156.1140    5.8200 C   0  0  0  0  0  0  0  0  0  0  0  0
  -35.2810  157.3060    6.0920 N   0  0  0  0  0  0  0  0  0  0  0  0
  -35.8910  158.4230    5.6430 C   0  0  0  0  0  0  0  0  0  0  0  0
  -37.0560  158.4180    4.9090 C   0  0  0  0  0  0  0  0  0  0  0  0
  -37.6170  157.1800    4.6090 C   0  0  0  0  0  0  0  0  0  0  0  0
  -38.8050  157.1080    3.9090 O   0  0  0  0  0  0  0  0  0  0  0  0
  -38.9020  157.8470    2.7520 C   0  0  0  0  0  0  0  0  0  0  0  0
  -37.8710  157.9520    1.8150 C   0  0  0  0  0  0  0  0  0  0  0  0
  -38.0570  158.6980    0.6450 C   0  0  0  0  0  0  0  0  0  0  0  0
  -39.2730  159.3370    0.3930 C   0  0  0  0  0  0  0  0  0  0  0  0
  -39.5250  160.0990   -0.7740 N   0  0  0  0  0  0  0  0  0  0  0  0
  -38.9610  161.3160   -1.1360 C   0  0  0  0  0  0  0  0  0  0  0  0
  -38.1930  161.9560   -0.4330 O   0  0  0  0  0  0  0  0  0  0  0  0
  -39.3920  161.6840   -2.3980 N   0  0  0  0  0  0  0  0  0  0  0  0
  -39.0750  162.8770   -3.0220 C   0  0  0  0  0  0  0  0  0  0  0  0
  -38.8500  162.9900   -4.4170 C   0  0  0  0  0  0  0  0  0  0  0  0
  -38.5780  164.3200   -4.6210 C   0  0  0  0  0  0  0  0  0  0  0  0
  -38.2530  165.1400   -5.8000 C   0  0  0  0  0  0  0  0  0  0  0  0
  -38.6390  164.9700   -3.4320 O   0  0  0  0  0  0  0  0  0  0  0  0
  -38.9540  164.0700   -2.4330 N   0  0  0  0  0  0  0  0  0  0  0  0
  -40.3120  159.1940    1.3340 C   0  0  0  0  0  0  0  0  0  0  0  0
  -41.8560  159.9370    1.0720 Cl  0  0  0  0  0  0  0  0  0  0  0  0
  -40.1310  158.4520    2.5030 C   0  0  0  0  0  0  0  0  0  0  0  0
  -37.0290  155.9880    5.0770 C   0  0  0  0  0  0  0  0  0  0  0  0
  -37.5660  154.7050    4.8300 C   0  0  0  0  0  0  0  0  0  0  0  0
  -36.9340  153.5570    5.3110 C   0  0  0  0  0  0  0  0  0  0  0  0
  -37.3870  152.2770    5.1150 O   0  0  0  0  0  0  0  0  0  0  0  0
  -38.4970  151.8420    5.8870 C   0  0  0  0  0  0  0  0  0  0  0  0
  -33.2323  152.1952    7.1078 H   0  0  0  0  0  0  0  0  0  0  0  0
  -33.7208  151.3662    5.5910 H   0  0  0  0  0  0  0  0  0  0  0  0
  -33.4249  153.1379    5.5910 H   0  0  0  0  0  0  0  0  0  0  0  0
  -34.2927  155.0594    6.8703 H   0  0  0  0  0  0  0  0  0  0  0  0
  -35.4306  159.3942    5.8771 H   0  0  0  0  0  0  0  0  0  0  0  0
  -37.5246  159.3548    4.5732 H   0  0  0  0  0  0  0  0  0  0  0  0
  -36.9107  157.4473    1.9970 H   0  0  0  0  0  0  0  0  0  0  0  0
  -37.2369  158.7817   -0.0833 H   0  0  0  0  0  0  0  0  0  0  0  0
  -40.3150  159.7830   -1.3190 H   0  0  0  0  0  0  0  0  0  0  0  0
  -39.8730  161.0030   -2.9600 H   0  0  0  0  0  0  0  0  0  0  0  0
  -38.8855  162.1888   -5.1699 H   0  0  0  0  0  0  0  0  0  0  0  0
  -37.8661  166.1162   -5.4723 H   0  0  0  0  0  0  0  0  0  0  0  0
  -37.4901  164.6273   -6.4042 H   0  0  0  0  0  0  0  0  0  0  0  0
  -39.1600  165.2891   -6.4042 H   0  0  0  0  0  0  0  0  0  0  0  0
  -40.9553  158.3460    3.2236 H   0  0  0  0  0  0  0  0  0  0  0  0
  -38.4958  154.6091    4.2501 H   0  0  0  0  0  0  0  0  0  0  0  0
  -38.2587  151.9354    6.9568 H   0  0  0  0  0  0  0  0  0  0  0  0
  -39.3737  152.4631    5.6510 H   0  0  0  0  0  0  0  0  0  0  0  0
  -38.7183  150.7906    5.6510 H   0  0  0  0  0  0  0  0  0  0  0  0
  1  2  1  0
  2  3  1  0
  3  4  1  0
  4  5  2  0
  5  6  1  0
  6  7  2  0
  7  8  1  0
  8  9  2  0
  9 10  1  0
 10 11  1  0
 11 12  1  0
 12 13  2  0
 13 14  1  0
 14 15  1  0
 15 16  1  0
 16 17  2  0
 16 18  1  0
 18 19  1  0
 19 20  1  0
 20 21  2  0
 21 22  1  0
 21 23  1  0
 23 24  1  0
 14 25  2  0
 25 26  1  0
 25 27  1  0
  9 28  1  0
 28 29  2  0
 29 30  1  0
 30 31  1  0
 31 32  1  0
 30  3  2  0
 28  5  1  0
 27 11  2  0
 24 19  2  0
  1 33  1  0
  1 34  1  0
  1 35  1  0
  4 36  1  0
  7 37  1  0
  8 38  1  0
 12 39  1  0
 13 40  1  0
 15 41  1  0
 18 42  1  0
 20 43  1  0
 22 44  1  0
 22 45  1  0
 22 46  1  0
 27 47  1  0
 29 48  1  0
 32 49  1  0
 32 50  1  0
 32 51  1  0
M  END
>  <meeko>  (2) 
{"is_sidechain": false}

>  <vina_affinity_kcal_mol>  (2) 
-9.787

>  <pose_rank>  (2) 
2

$$$$

     RDKit          3D

 51 54  0  0  0  0  0  0  0  0999 V2000
  -38.5810  157.4330  -12.0840 C   0  0  0  0  0  0  0  0  0  0  0  0
  -37.3950  158.2110  -12.1430 O   0  0  0  0  0  0  0  0  0  0  0  0
  -37.3530  159.3660  -11.4010 C   0  0  0  0  0  0  0  0  0  0  0  0
  -37.8930  160.5900  -11.8120 C   0  0  0  0  0  0  0  0  0  0  0  0
  -37.8220  161.7280  -11.0200 C   0  0  0  0  0  0  0  0  0  0  0  0
  -38.3620  162.8710  -11.4820 N   0  0  0  0  0  0  0  0  0  0  0  0
  -38.2800  163.9790  -10.7160 C   0  0  0  0  0  0  0  0  0  0  0  0
  -37.6830  164.0100   -9.4760 C   0  0  0  0  0  0  0  0  0  0  0  0
  -37.1490  162.8190   -8.9930 C   0  0  0  0  0  0  0  0  0  0  0  0
  -36.5020  162.7930   -7.7730 O   0  0  0  0  0  0  0  0  0  0  0  0
  -37.2680  162.5420   -6.6570 C   0  0  0  0  0  0  0  0  0  0  0  0
  -37.7970  161.2870   -6.3510 C   0  0  0  0  0  0  0  0  0  0  0  0
  -38.5410  161.1040   -5.1790 C   0  0  0  0  0  0  0  0  0  0  0  0
  -38.7560  162.1660   -4.2980 C   0  0  0  0  0  0  0  0  0  0  0  0
  -39.4930  162.0430   -3.0950 N   0  0  0  0  0  0  0  0  0  0  0  0
  -39.3100  161.1200   -2.0730 C   0  0  0  0  0  0  0  0  0  0  0  0
  -38.5010  160.2040   -2.1080 O   0  0  0  0  0  0  0  0  0  0  0  0
  -40.1680  161.3940   -1.0230 N   0  0  0  0  0  0  0  0  0  0  0  0
  -40.2910  160.6220    0.1170 C   0  0  0  0  0  0  0  0  0  0  0  0
  -41.4630  159.8940    0.4430 C   0  0  0  0  0  0  0  0  0  0  0  0
  -41.1690  159.2680    1.6280 C   0  0  0  0  0  0  0  0  0  0  0  0
  -41.9040  158.3680    2.5320 C   0  0  0  0  0  0  0  0  0  0  0  0
  -39.9030  159.5890    1.9930 O   0  0  0  0  0  0  0  0  0  0  0  0
  -39.3520  160.4310    1.0490 N   0  0  0  0  0  0  0  0  0  0  0  0
  -38.1880  163.4170   -4.6070 C   0  0  0  0  0  0  0  0  0  0  0  0
  -38.3910  164.7720   -3.5460 Cl  0  0  0  0  0  0  0  0  0  0  0  0
  -37.4470  163.6050   -5.7760 C   0  0  0  0  0  0  0  0  0  0  0  0
  -37.1890  161.6420   -9.7670 C   0  0  0  0  0  0  0  0  0  0  0  0
  -36.6390  160.4110   -9.3450 C   0  0  0  0  0  0  0  0  0  0  0  0
  -36.7180  159.2750  -10.1520 C   0  0  0  0  0  0  0  0  0  0  0  0
  -36.2130  158.0450   -9.8160 O   0  0  0  0  0  0  0  0  0  0  0  0
  -35.2020  157.9930   -8.8190 C   0  0  0  0  0  0  0  0  0  0  0  0
  -38.8513  157.2557  -11.0326 H   0  0  0  0  0  0  0  0  0  0  0  0
  -39.3980  157.9712  -12.5869 H   0  0  0  0  0  0  0  0  0  0  0  0
  -38.4127  156.4693  -12.5869 H   0  0  0  0  0  0  0  0  0  0  0  0
  -38.3886  160.6522  -12.7921 H   0  0  0  0  0  0  0  0  0  0  0  0
  -38.7154  164.9113  -11.1050 H   0  0  0  0  0  0  0  0  0  0  0  0
  -37.6301  164.9394   -8.8900 H   0  0  0  0  0  0  0  0  0  0  0  0
  -37.6290  160.4398   -7.0322 H   0  0  0  0  0  0  0  0  0  0  0  0
  -38.9605  160.1133   -4.9498 H   0  0  0  0  0  0  0  0  0  0  0  0
  -40.3360  162.5990   -3.0610 H   0  0  0  0  0  0  0  0  0  0  0  0
  -40.6580  162.2720   -1.0190 H   0  0  0  0  0  0  0  0  0  0  0  0
  -42.4016  159.8424   -0.1284 H   0  0  0  0  0  0  0  0  0  0  0  0
  -41.6843  158.6371    3.5757 H   0  0  0  0  0  0  0  0  0  0  0  0
  -42.9841  158.4653    2.3479 H   0  0  0  0  0  0  0  0  0  0  0  0
  -41.5928  157.3291    2.3479 H   0  0  0  0  0  0  0  0  0  0  0  0
  -37.0070  164.5881   -5.9994 H   0  0  0  0  0  0  0  0  0  0  0  0
  -36.1413  160.3469   -8.3662 H   0  0  0  0  0  0  0  0  0  0  0  0
  -35.6679  158.0170   -7.8228 H   0  0  0  0  0  0  0  0  0  0  0  0
  -34.6239  157.0639   -8.9312 H   0  0  0  0  0  0  0  0  0  0  0  0
  -34.5316  158.8578   -8.9312 H   0  0  0  0  0  0  0  0  0  0  0  0
  1  2  1  0
  2  3  1  0
  3  4  1  0
  4  5  2  0
  5  6  1  0
  6  7  2  0
  7  8  1  0
  8  9  2  0
  9 10  1  0
 10 11  1  0
 11 12  1  0
 12 13  2  0
 13 14  1  0
 14 15  1  0
 15 16  1  0
 16 17  2  0
 16 18  1  0
 18 19  1  0
 19 20  1  0
 20 21  2  0
 21 22  1  0
 21 23  1  0
 23 24  1  0
 14 25  2  0
 25 26  1  0
 25 27  1  0
  9 28  1  0
 28 29  2  0
 29 30  1  0
 30 31  1  0
 31 32  1  0
 30  3  2  0
 28  5  1  0
 27 11  2  0
 24 19  2  0
  1 33  1  0
  1 34  1  0
  1 35  1  0
  4 36  1  0
  7 37  1  0
  8 38  1  0
 12 39  1  0
 13 40  1  0
 15 41  1  0
 18 42  1  0
 20 43  1  0
 22 44  1  0
 22 45  1  0
 22 46  1  0
 27 47  1  0
 29 48  1  0
 32 49  1  0
 32 50  1  0
 32 51  1  0
M  END
>  <meeko>  (3) 
{"is_sidechain": false}

>  <vina_affinity_kcal_mol>  (3) 
-9.639

>  <pose_rank>  (3) 
3

$$$$

     RDKit          3D

 51 54  0  0  0  0  0  0  0  0999 V2000
  -33.9660  170.1190  -11.3660 C   0  0  0  0  0  0  0  0  0  0  0  0
  -35.2620  169.6670  -11.7260 O   0  0  0  0  0  0  0  0  0  0  0  0
  -35.6080  168.3820  -11.3860 C   0  0  0  0  0  0  0  0  0  0  0  0
  -34.8120  167.2570  -11.6340 C   0  0  0  0  0  0  0  0  0  0  0  0
  -35.2110  165.9790  -11.2670 C   0  0  0  0  0  0  0  0  0  0  0  0
  -34.3950  164.9450  -11.5410 N   0  0  0  0  0  0  0  0  0  0  0  0
  -34.7910  163.7020  -11.1940 C   0  0  0  0  0  0  0  0  0  0  0  0
  -35.9830  163.4250  -10.5650 C   0  0  0  0  0  0  0  0  0  0  0  0
  -36.8110  164.5020  -10.2620 C   0  0  0  0  0  0  0  0  0  0  0  0
  -38.0380  164.2870   -9.6660 O   0  0  0  0  0  0  0  0  0  0  0  0
  -38.0500  163.5860   -8.4810 C   0  0  0  0  0  0  0  0  0  0  0  0
  -38.2180  162.2020   -8.4050 C   0  0  0  0  0  0  0  0  0  0  0  0
  -38.1880  161.5560   -7.1640 C   0  0  0  0  0  0  0  0  0  0  0  0
  -37.9790  162.2810   -5.9880 C   0  0  0  0  0  0  0  0  0  0  0  0
  -37.9310  161.6850   -4.7040 N   0  0  0  0  0  0  0  0  0  0  0  0
  -38.8750  161.7690   -3.6890 C   0  0  0  0  0  0  0  0  0  0  0  0
  -39.8840  162.4580   -3.7420 O   0  0  0  0  0  0  0  0  0  0  0  0
  -38.5070  160.9640   -2.6270 N   0  0  0  0  0  0  0  0  0  0  0  0
  -39.1910  160.8770   -1.4280 C   0  0  0  0  0  0  0  0  0  0  0  0
  -40.1460  159.8670   -1.1480 C   0  0  0  0  0  0  0  0  0  0  0  0
  -40.5740  160.1340    0.1280 C   0  0  0  0  0  0  0  0  0  0  0  0
  -41.5410  159.5110    1.0460 C   0  0  0  0  0  0  0  0  0  0  0  0
  -39.9180  161.2270    0.5930 O   0  0  0  0  0  0  0  0  0  0  0  0
  -39.0520  161.6900   -0.3770 N   0  0  0  0  0  0  0  0  0  0  0  0
  -37.7800  163.6720   -6.0860 C   0  0  0  0  0  0  0  0  0  0  0  0
  -37.4900  164.6300   -4.6720 Cl  0  0  0  0  0  0  0  0  0  0  0  0
  -37.8110  164.3210   -7.3230 C   0  0  0  0  0  0  0  0  0  0  0  0
  -36.4520  165.8150  -10.6250 C   0  0  0  0  0  0  0  0  0  0  0  0
  -37.2620  166.9440  -10.3720 C   0  0  0  0  0  0  0  0  0  0  0  0
  -36.8490  168.2240  -10.7460 C   0  0  0  0  0  0  0  0  0  0  0  0
  -37.5730  169.3690  -10.5360 O   0  0  0  0  0  0  0  0  0  0  0  0
  -38.4290  169.8130  -11.5790 C   0  0  0  0  0  0  0  0  0  0  0  0
  -33.8796  170.1492  -10.2698 H   0  0  0  0  0  0  0  0  0  0  0  0
  -33.2111  169.4311  -11.7746 H   0  0  0  0  0  0  0  0  0  0  0  0
  -33.8027  171.1272  -11.7746 H   0  0  0  0  0  0  0  0  0  0  0  0
  -33.8415  167.3899  -12.1346 H   0  0  0  0  0  0  0  0  0  0  0  0
  -34.1214  162.8612  -11.4278 H   0  0  0  0  0  0  0  0  0  0  0  0
  -36.2701  162.3938  -10.3118 H   0  0  0  0  0  0  0  0  0  0  0  0
  -38.3744  161.6175   -9.3236 H   0  0  0  0  0  0  0  0  0  0  0  0
  -38.3304  160.4664   -7.1138 H   0  0  0  0  0  0  0  0  0  0  0  0
  -37.0360  161.2820   -4.4620 H   0  0  0  0  0  0  0  0  0  0  0  0
  -37.7600  160.3030   -2.7600 H   0  0  0  0  0  0  0  0  0  0  0  0
  -40.4719  159.0497   -1.8081 H   0  0  0  0  0  0  0  0  0  0  0  0
  -41.2381  159.7061    2.0853 H   0  0  0  0  0  0  0  0  0  0  0  0
  -42.5403  159.9356    0.8694 H   0  0  0  0  0  0  0  0  0  0  0  0
  -41.5674  158.4256    0.8694 H   0  0  0  0  0  0  0  0  0  0  0  0
  -37.6474  165.4072   -7.3816 H   0  0  0  0  0  0  0  0  0  0  0  0
  -38.2332  166.8127   -9.8726 H   0  0  0  0  0  0  0  0  0  0  0  0
  -39.3259  170.2782  -11.1442 H   0  0  0  0  0  0  0  0  0  0  0  0
  -37.8984  170.5496  -12.2003 H   0  0  0  0  0  0  0  0  0  0  0  0
  -38.7255  168.9550  -12.2003 H   0  0  0  0  0  0  0  0  0  0  0  0
  1  2  1  0
  2  3  1  0
  3  4  1  0
  4  5  2  0
  5  6  1  0
  6  7  2  0
  7  8  1  0
  8  9  2  0
  9 10  1  0
 10 11  1  0
 11 12  1  0
 12 13  2  0
 13 14  1  0
 14 15  1  0
 15 16  1  0
 16 17  2  0
 16 18  1  0
 18 19  1  0
 19 20  1  0
 20 21  2  0
 21 22  1  0
 21 23  1  0
 23 24  1  0
 14 25  2  0
 25 26  1  0
 25 27  1  0
  9 28  1  0
 28 29  2  0
 29 30  1  0
 30 31  1  0
 31 32  1  0
 30  3  2  0
 28  5  1  0
 27 11  2  0
 24 19  2  0
  1 33  1  0
  1 34  1  0
  1 35  1  0
  4 36  1  0
  7 37  1  0
  8 38  1  0
 12 39  1  0
 13 40  1  0
 15 41  1  0
 18 42  1  0
 20 43  1  0
 22 44  1  0
 22 45  1  0
 22 46  1  0
 27 47  1  0
 29 48  1  0
 32 49  1  0
 32 50  1  0
 32 51  1  0
M  END
>  <meeko>  (4) 
{"is_sidechain": false}

>  <vina_affinity_kcal_mol>  (4) 
-9.525

>  <pose_rank>  (4) 
4

$$$$

     RDKit          3D

 51 54  0  0  0  0  0  0  0  0999 V2000
  -38.1900  165.7450   -9.7020 C   0  0  0  0  0  0  0  0  0  0  0  0
  -37.4830  164.6110   -9.2220 O   0  0  0  0  0  0  0  0  0  0  0  0
  -37.8270  164.1210   -7.9860 C   0  0  0  0  0  0  0  0  0  0  0  0
  -38.0300  164.9120   -6.8500 C   0  0  0  0  0  0  0  0  0  0  0  0
  -38.3770  164.3630   -5.6240 C   0  0  0  0  0  0  0  0  0  0  0  0
  -38.5540  165.1870   -4.5740 N   0  0  0  0  0  0  0  0  0  0  0  0
  -38.8800  164.6490   -3.3800 C   0  0  0  0  0  0  0  0  0  0  0  0
  -39.0540  163.2990   -3.1700 C   0  0  0  0  0  0  0  0  0  0  0  0
  -38.8950  162.4550   -4.2650 C   0  0  0  0  0  0  0  0  0  0  0  0
  -39.0180  161.0890   -4.1110 O   0  0  0  0  0  0  0  0  0  0  0  0
  -38.9850  160.5930   -2.8270 C   0  0  0  0  0  0  0  0  0  0  0  0
  -37.8750  159.9500   -2.2770 C   0  0  0  0  0  0  0  0  0  0  0  0
  -37.9070  159.5000   -0.9510 C   0  0  0  0  0  0  0  0  0  0  0  0
  -39.0410  159.6940   -0.1610 C   0  0  0  0  0  0  0  0  0  0  0  0
  -39.1330  159.2690    1.1870 N   0  0  0  0  0  0  0  0  0  0  0  0
  -38.2820  158.4100    1.8700 C   0  0  0  0  0  0  0  0  0  0  0  0
  -37.3390  157.8230    1.3590 O   0  0  0  0  0  0  0  0  0  0  0  0
  -38.6560  158.3250    3.1990 N   0  0  0  0  0  0  0  0  0  0  0  0
  -38.0600  157.4990    4.1350 C   0  0  0  0  0  0  0  0  0  0  0  0
  -37.1050  157.9520    5.0790 C   0  0  0  0  0  0  0  0  0  0  0  0
  -36.7800  156.8380    5.8110 C   0  0  0  0  0  0  0  0  0  0  0  0
  -35.8690  156.5690    6.9350 C   0  0  0  0  0  0  0  0  0  0  0  0
  -37.4940  155.7820    5.3470 O   0  0  0  0  0  0  0  0  0  0  0  0
  -38.2970  156.1940    4.3020 N   0  0  0  0  0  0  0  0  0  0  0  0
  -40.1410  160.3720   -0.7230 C   0  0  0  0  0  0  0  0  0  0  0  0
  -41.5710  160.6720    0.2090 Cl  0  0  0  0  0  0  0  0  0  0  0  0
  -40.1140  160.8220   -2.0450 C   0  0  0  0  0  0  0  0  0  0  0  0
  -38.5310  162.9680   -5.5260 C   0  0  0  0  0  0  0  0  0  0  0  0
  -38.3270  162.1610   -6.6670 C   0  0  0  0  0  0  0  0  0  0  0  0
  -37.9770  162.7270   -7.8940 C   0  0  0  0  0  0  0  0  0  0  0  0
  -37.7630  162.0160   -9.0470 O   0  0  0  0  0  0  0  0  0  0  0  0
  -37.0290  160.8040   -8.9510 C   0  0  0  0  0  0  0  0  0  0  0  0
  -38.5580  166.3353   -8.8499 H   0  0  0  0  0  0  0  0  0  0  0  0
  -37.5177  166.3642  -10.3140 H   0  0  0  0  0  0  0  0  0  0  0  0
  -39.0420  165.4139  -10.3140 H   0  0  0  0  0  0  0  0  0  0  0  0
  -37.9108  166.0025   -6.9314 H   0  0  0  0  0  0  0  0  0  0  0  0
  -39.0145  165.3280   -2.5251 H   0  0  0  0  0  0  0  0  0  0  0  0
  -39.3087  162.9034   -2.1757 H   0  0  0  0  0  0  0  0  0  0  0  0
  -36.9724  159.7962   -2.8867 H   0  0  0  0  0  0  0  0  0  0  0  0
  -37.0297  158.9886   -0.5281 H   0  0  0  0  0  0  0  0  0  0  0  0
  -40.0040  159.5060    1.6430 H   0  0  0  0  0  0  0  0  0  0  0  0
  -39.3260  158.9850    3.5540 H   0  0  0  0  0  0  0  0  0  0  0  0
  -36.7111  158.9721    5.1985 H   0  0  0  0  0  0  0  0  0  0  0  0
  -36.4017  156.7263    7.8845 H   0  0  0  0  0  0  0  0  0  0  0  0
  -35.5165  155.5284    6.8804 H   0  0  0  0  0  0  0  0  0  0  0  0
  -35.0078  157.2512    6.8804 H   0  0  0  0  0  0  0  0  0  0  0  0
  -40.9797  161.3543   -2.4659 H   0  0  0  0  0  0  0  0  0  0  0  0
  -38.4457  161.0703   -6.5875 H   0  0  0  0  0  0  0  0  0  0  0  0
  -36.8758  160.5511   -7.8915 H   0  0  0  0  0  0  0  0  0  0  0  0
  -37.5896  159.9958   -9.4436 H   0  0  0  0  0  0  0  0  0  0  0  0
  -36.0531  160.9264   -9.4436 H   0  0  0  0  0  0  0  0  0  0  0  0
  1  2  1  0
  2  3  1  0
  3  4  1  0
  4  5  2  0
  5  6  1  0
  6  7  2  0
  7  8  1  0
  8  9  2  0
  9 10  1  0
 10 11  1  0
 11 12  1  0
 12 13  2  0
 13 14  1  0
 14 15  1  0
 15 16  1  0
 16 17  2  0
 16 18  1  0
 18 19  1  0
 19 20  1  0
 20 21  2  0
 21 22  1  0
 21 23  1  0
 23 24  1  0
 14 25  2  0
 25 26  1  0
 25 27  1  0
  9 28  1  0
 28 29  2  0
 29 30  1  0
 30 31  1  0
 31 32  1  0
 30  3  2  0
 28  5  1  0
 27 11  2  0
 24 19  2  0
  1 33  1  0
  1 34  1  0
  1 35  1  0
  4 36  1  0
  7 37  1  0
  8 38  1  0
 12 39  1  0
 13 40  1  0
 15 41  1  0
 18 42  1  0
 20 43  1  0
 22 44  1  0
 22 45  1  0
 22 46  1  0
 27 47  1  0
 29 48  1  0
 32 49  1  0
 32 50  1  0
 32 51  1  0
M  END
>  <meeko>  (5) 
{"is_sidechain": false}

>  <vina_affinity_kcal_mol>  (5) 
-9.483

>  <pose_rank>  (5) 
5

$$$$

     RDKit          3D

 51 54  0  0  0  0  0  0  0  0999 V2000
  -37.6910  147.4120    3.6700 C   0  0  0  0  0  0  0  0  0  0  0  0
  -38.0440  147.8680    4.9670 O   0  0  0  0  0  0  0  0  0  0  0  0
  -37.5650  149.0920    5.3660 C   0  0  0  0  0  0  0  0  0  0  0  0
  -36.2130  149.3760    5.5960 C   0  0  0  0  0  0  0  0  0  0  0  0
  -35.7850  150.6320    5.9990 C   0  0  0  0  0  0  0  0  0  0  0  0
  -34.4690  150.8300    6.2030 N   0  0  0  0  0  0  0  0  0  0  0  0
  -34.0560  152.0500    6.6070 C   0  0  0  0  0  0  0  0  0  0  0  0
  -34.9020  153.1160    6.8140 C   0  0  0  0  0  0  0  0  0  0  0  0
  -36.2580  152.9120    6.5750 C   0  0  0  0  0  0  0  0  0  0  0  0
  -37.1630  153.9300    6.8010 O   0  0  0  0  0  0  0  0  0  0  0  0
  -37.2510  154.9200    5.8490 C   0  0  0  0  0  0  0  0  0  0  0  0
  -37.6680  154.6930    4.5360 C   0  0  0  0  0  0  0  0  0  0  0  0
  -37.7620  155.7580    3.6320 C   0  0  0  0  0  0  0  0  0  0  0  0
  -37.4510  157.0600    4.0310 C   0  0  0  0  0  0  0  0  0  0  0  0
  -37.5320  158.1800    3.1680 N   0  0  0  0  0  0  0  0  0  0  0  0
  -38.4190  158.3840    2.1180 C   0  0  0  0  0  0  0  0  0  0  0  0
  -39.2360  157.5590    1.7350 O   0  0  0  0  0  0  0  0  0  0  0  0
  -38.2410  159.6480    1.5830 N   0  0  0  0  0  0  0  0  0  0  0  0
  -38.9140  160.1390    0.4790 C   0  0  0  0  0  0  0  0  0  0  0  0
  -38.3230  160.2580   -0.8040 C   0  0  0  0  0  0  0  0  0  0  0  0
  -39.3160  160.7690   -1.6010 C   0  0  0  0  0  0  0  0  0  0  0  0
  -39.4130  161.1440   -3.0210 C   0  0  0  0  0  0  0  0  0  0  0  0
  -40.4350  160.9430   -0.8530 O   0  0  0  0  0  0  0  0  0  0  0  0
  -40.1860  160.5460    0.4450 N   0  0  0  0  0  0  0  0  0  0  0  0
  -37.0620  157.2750    5.3680 C   0  0  0  0  0  0  0  0  0  0  0  0
  -36.6870  158.8680    5.9390 Cl  0  0  0  0  0  0  0  0  0  0  0  0
  -36.9650  156.2150    6.2720 C   0  0  0  0  0  0  0  0  0  0  0  0
  -36.7400  151.6490    6.1770 C   0  0  0  0  0  0  0  0  0  0  0  0
  -38.1060  151.3720    5.9470 C   0  0  0  0  0  0  0  0  0  0  0  0
  -38.5240  150.1030    5.5430 C   0  0  0  0  0  0  0  0  0  0  0  0
  -39.8270  149.7530    5.2990 O   0  0  0  0  0  0  0  0  0  0  0  0
  -40.6630  149.4880    6.4170 C   0  0  0  0  0  0  0  0  0  0  0  0
  -37.0197  146.5449    3.7563 H   0  0  0  0  0  0  0  0  0  0  0  0
  -38.6001  147.1191    3.1243 H   0  0  0  0  0  0  0  0  0  0  0  0
  -37.1797  148.2187    3.1243 H   0  0  0  0  0  0  0  0  0  0  0  0
  -35.4684  148.5791    5.4527 H   0  0  0  0  0  0  0  0  0  0  0  0
  -32.9804  152.2012    6.7810 H   0  0  0  0  0  0  0  0  0  0  0  0
  -34.5216  154.0903    7.1547 H   0  0  0  0  0  0  0  0  0  0  0  0
  -37.9236  153.6738    4.2106 H   0  0  0  0  0  0  0  0  0  0  0  0
  -38.0839  155.5676    2.5975 H   0  0  0  0  0  0  0  0  0  0  0  0
  -36.7560  158.8230    3.2410 H   0  0  0  0  0  0  0  0  0  0  0  0
  -37.6740  160.3080    2.0870 H   0  0  0  0  0  0  0  0  0  0  0  0
  -37.2949  159.9980   -1.0962 H   0  0  0  0  0  0  0  0  0  0  0  0
  -39.6877  162.2061   -3.1018 H   0  0  0  0  0  0  0  0  0  0  0  0
  -38.4424  160.9780   -3.5112 H   0  0  0  0  0  0  0  0  0  0  0  0
  -40.1814  160.5282   -3.5112 H   0  0  0  0  0  0  0  0  0  0  0  0
  -36.6640  156.4025    7.3133 H   0  0  0  0  0  0  0  0  0  0  0  0
  -38.8515  152.1684    6.0884 H   0  0  0  0  0  0  0  0  0  0  0  0
  -40.1009  149.6662    7.3456 H   0  0  0  0  0  0  0  0  0  0  0  0
  -41.5390  150.1525    6.3855 H   0  0  0  0  0  0  0  0  0  0  0  0
  -40.9963  148.4402    6.3855 H   0  0  0  0  0  0  0  0  0  0  0  0
  1  2  1  0
  2  3  1  0
  3  4  1  0
  4  5  2  0
  5  6  1  0
  6  7  2  0
  7  8  1  0
  8  9  2  0
  9 10  1  0
 10 11  1  0
 11 12  1  0
 12 13  2  0
 13 14  1  0
 14 15  1  0
 15 16  1  0
 16 17  2  0
 16 18  1  0
 18 19  1  0
 19 20  1  0
 20 21  2  0
 21 22  1  0
 21 23  1  0
 23 24  1  0
 14 25  2  0
 25 26  1  0
 25 27  1  0
  9 28  1  0
 28 29  2  0
 29 30  1  0
 30 31  1  0
 31 32  1  0
 30  3  2  0
 28  5  1  0
 27 11  2  0
 24 19  2  0
  1 33  1  0
  1 34  1  0
  1 35  1  0
  4 36  1  0
  7 37  1  0
  8 38  1  0
 12 39  1  0
 13 40  1  0
 15 41  1  0
 18 42  1  0
 20 43  1  0
 22 44  1  0
 22 45  1  0
 22 46  1  0
 27 47  1  0
 29 48  1  0
 32 49  1  0
 32 50  1  0
 32 51  1  0
M  END
>  <meeko>  (6) 
{"is_sidechain": false}

>  <vina_affinity_kcal_mol>  (6) 
-8.683

>  <pose_rank>  (6) 
6

$$$$

     RDKit          3D

 51 54  0  0  0  0  0  0  0  0999 V2000
  -35.1160  146.3220   10.8790 C   0  0  0  0  0  0  0  0  0  0  0  0
  -35.9050  147.5020   10.9050 O   0  0  0  0  0  0  0  0  0  0  0  0
  -35.7020  148.4270    9.9100 C   0  0  0  0  0  0  0  0  0  0  0  0
  -35.7830  148.1470    8.5410 C   0  0  0  0  0  0  0  0  0  0  0  0
  -35.5680  149.1220    7.5770 C   0  0  0  0  0  0  0  0  0  0  0  0
  -35.6600  148.7780    6.2800 N   0  0  0  0  0  0  0  0  0  0  0  0
  -35.4380  149.7250    5.3440 C   0  0  0  0  0  0  0  0  0  0  0  0
  -35.1310  151.0350    5.6380 C   0  0  0  0  0  0  0  0  0  0  0  0
  -35.0630  151.3900    6.9820 C   0  0  0  0  0  0  0  0  0  0  0  0
  -34.7220  152.6780    7.3420 O   0  0  0  0  0  0  0  0  0  0  0  0
  -35.4180  153.7060    6.7460 C   0  0  0  0  0  0  0  0  0  0  0  0
  -36.7920  153.8990    6.9030 C   0  0  0  0  0  0  0  0  0  0  0  0
  -37.4240  154.9880    6.2900 C   0  0  0  0  0  0  0  0  0  0  0  0
  -36.6920  155.8980    5.5250 C   0  0  0  0  0  0  0  0  0  0  0  0
  -37.2710  157.0220    4.8860 N   0  0  0  0  0  0  0  0  0  0  0  0
  -37.8380  157.0840    3.6190 C   0  0  0  0  0  0  0  0  0  0  0  0
  -37.8480  156.1570    2.8220 O   0  0  0  0  0  0  0  0  0  0  0  0
  -38.3850  158.3360    3.4030 N   0  0  0  0  0  0  0  0  0  0  0  0
  -38.9600  158.7510    2.2150 C   0  0  0  0  0  0  0  0  0  0  0  0
  -40.3340  159.0720    2.0860 C   0  0  0  0  0  0  0  0  0  0  0  0
  -40.4870  159.4390    0.7730 C   0  0  0  0  0  0  0  0  0  0  0  0
  -41.6220  159.8850   -0.0520 C   0  0  0  0  0  0  0  0  0  0  0  0
  -39.2850  159.3520    0.1490 O   0  0  0  0  0  0  0  0  0  0  0  0
  -38.3300  158.9260    1.0500 N   0  0  0  0  0  0  0  0  0  0  0  0
  -35.3020  155.7050    5.4040 C   0  0  0  0  0  0  0  0  0  0  0  0
  -34.3270  156.8110    4.4920 Cl  0  0  0  0  0  0  0  0  0  0  0  0
  -34.6670  154.6200    6.0120 C   0  0  0  0  0  0  0  0  0  0  0  0
  -35.2630  150.4300    7.9940 C   0  0  0  0  0  0  0  0  0  0  0  0
  -35.1790  150.7220    9.3730 C   0  0  0  0  0  0  0  0  0  0  0  0
  -35.3970  149.7320   10.3320 C   0  0  0  0  0  0  0  0  0  0  0  0
  -35.3350  149.9320   11.6880 O   0  0  0  0  0  0  0  0  0  0  0  0
  -35.5240  151.2540   12.1710 C   0  0  0  0  0  0  0  0  0  0  0  0
  -34.9017  146.0015   11.9092 H   0  0  0  0  0  0  0  0  0  0  0  0
  -35.6641  145.5259   10.3538 H   0  0  0  0  0  0  0  0  0  0  0  0
  -34.1709  146.5244   10.3538 H   0  0  0  0  0  0  0  0  0  0  0  0
  -36.0244  147.1231    8.2194 H   0  0  0  0  0  0  0  0  0  0  0  0
  -35.5062  149.4336    4.2855 H   0  0  0  0  0  0  0  0  0  0  0  0
  -34.9468  151.7716    4.8421 H   0  0  0  0  0  0  0  0  0  0  0  0
  -37.3793  153.1940    7.5096 H   0  0  0  0  0  0  0  0  0  0  0  0
  -38.5082  155.1278    6.4125 H   0  0  0  0  0  0  0  0  0  0  0  0
  -37.1110  157.9010    5.3580 H   0  0  0  0  0  0  0  0  0  0  0  0
  -38.4840  158.9600    4.1850 H   0  0  0  0  0  0  0  0  0  0  0  0
  -41.1078  159.0351    2.8669 H   0  0  0  0  0  0  0  0  0  0  0  0
  -42.4455  160.2086    0.6015 H   0  0  0  0  0  0  0  0  0  0  0  0
  -41.3058  160.7257   -0.6870 H   0  0  0  0  0  0  0  0  0  0  0  0
  -41.9627  159.0539   -0.6870 H   0  0  0  0  0  0  0  0  0  0  0  0
  -33.5795  154.4883    5.9115 H   0  0  0  0  0  0  0  0  0  0  0  0
  -34.9381  151.7455    9.6962 H   0  0  0  0  0  0  0  0  0  0  0  0
  -35.5229  151.2461   13.2710 H   0  0  0  0  0  0  0  0  0  0  0  0
  -34.7087  151.8970   11.8081 H   0  0  0  0  0  0  0  0  0  0  0  0
  -36.4869  151.6428   11.8081 H   0  0  0  0  0  0  0  0  0  0  0  0
  1  2  1  0
  2  3  1  0
  3  4  1  0
  4  5  2  0
  5  6  1  0
  6  7  2  0
  7  8  1  0
  8  9  2  0
  9 10  1  0
 10 11  1  0
 11 12  1  0
 12 13  2  0
 13 14  1  0
 14 15  1  0
 15 16  1  0
 16 17  2  0
 16 18  1  0
 18 19  1  0
 19 20  1  0
 20 21  2  0
 21 22  1  0
 21 23  1  0
 23 24  1  0
 14 25  2  0
 25 26  1  0
 25 27  1  0
  9 28  1  0
 28 29  2  0
 29 30  1  0
 30 31  1  0
 31 32  1  0
 30  3  2  0
 28  5  1  0
 27 11  2  0
 24 19  2  0
  1 33  1  0
  1 34  1  0
  1 35  1  0
  4 36  1  0
  7 37  1  0
  8 38  1  0
 12 39  1  0
 13 40  1  0
 15 41  1  0
 18 42  1  0
 20 43  1  0
 22 44  1  0
 22 45  1  0
 22 46  1  0
 27 47  1  0
 29 48  1  0
 32 49  1  0
 32 50  1  0
 32 51  1  0
M  END
>  <meeko>  (7) 
{"is_sidechain": false}

>  <vina_affinity_kcal_mol>  (7) 
-8.378

>  <pose_rank>  (7) 
7

$$$$

     RDKit          3D

 51 54  0  0  0  0  0  0  0  0999 V2000
  -33.0360  157.5530    4.9930 C   0  0  0  0  0  0  0  0  0  0  0  0
  -34.3240  157.1850    4.5220 O   0  0  0  0  0  0  0  0  0  0  0  0
  -34.8510  155.9980    4.9680 C   0  0  0  0  0  0  0  0  0  0  0  0
  -34.0950  154.8540    5.2520 C   0  0  0  0  0  0  0  0  0  0  0  0
  -34.6810  153.6790    5.7010 C   0  0  0  0  0  0  0  0  0  0  0  0
  -33.8900  152.6190    5.9510 N   0  0  0  0  0  0  0  0  0  0  0  0
  -34.4640  151.4730    6.3750 C   0  0  0  0  0  0  0  0  0  0  0  0
  -35.8170  151.3230    6.5800 C   0  0  0  0  0  0  0  0  0  0  0  0
  -36.6260  152.4310    6.3440 C   0  0  0  0  0  0  0  0  0  0  0  0
  -37.9940  152.3350    6.4940 O   0  0  0  0  0  0  0  0  0  0  0  0
  -38.6660  151.4920    5.6370 C   0  0  0  0  0  0  0  0  0  0  0  0
  -38.6170  151.6070    4.2470 C   0  0  0  0  0  0  0  0  0  0  0  0
  -39.3030  150.6900    3.4400 C   0  0  0  0  0  0  0  0  0  0  0  0
  -40.0330  149.6460    4.0110 C   0  0  0  0  0  0  0  0  0  0  0  0
  -40.7420  148.6840    3.2500 N   0  0  0  0  0  0  0  0  0  0  0  0
  -40.2290  147.5810    2.5790 C   0  0  0  0  0  0  0  0  0  0  0  0
  -39.0380  147.3210    2.4910 O   0  0  0  0  0  0  0  0  0  0  0  0
  -41.2580  146.8310    2.0390 N   0  0  0  0  0  0  0  0  0  0  0  0
  -41.0850  145.7100    1.2480 C   0  0  0  0  0  0  0  0  0  0  0  0
  -40.9090  145.7680   -0.1580 C   0  0  0  0  0  0  0  0  0  0  0  0
  -40.7660  144.4600   -0.5470 C   0  0  0  0  0  0  0  0  0  0  0  0
  -40.5550  143.7820   -1.8360 C   0  0  0  0  0  0  0  0  0  0  0  0
  -40.8450  143.6630    0.5490 O   0  0  0  0  0  0  0  0  0  0  0  0
  -41.0410  144.4430    1.6700 N   0  0  0  0  0  0  0  0  0  0  0  0
  -40.0460  149.5270    5.4140 C   0  0  0  0  0  0  0  0  0  0  0  0
  -40.9100  148.2400    6.1900 Cl  0  0  0  0  0  0  0  0  0  0  0  0
  -39.3640  150.4400    6.2230 C   0  0  0  0  0  0  0  0  0  0  0  0
  -36.0760  153.6410    5.8770 C   0  0  0  0  0  0  0  0  0  0  0  0
  -36.8470  154.7900    5.5920 C   0  0  0  0  0  0  0  0  0  0  0  0
  -36.2450  155.9660    5.1400 C   0  0  0  0  0  0  0  0  0  0  0  0
  -36.9190  157.1230    4.8440 O   0  0  0  0  0  0  0  0  0  0  0  0
  -37.7690  157.1200    3.7060 C   0  0  0  0  0  0  0  0  0  0  0  0
  -33.0342  157.5535    6.0930 H   0  0  0  0  0  0  0  0  0  0  0  0
  -32.2913  156.8317    4.6254 H   0  0  0  0  0  0  0  0  0  0  0  0
  -32.7847  158.5589    4.6254 H   0  0  0  0  0  0  0  0  0  0  0  0
  -33.0041  154.8878    5.1151 H   0  0  0  0  0  0  0  0  0  0  0  0
  -33.8122  150.6082    6.5680 H   0  0  0  0  0  0  0  0  0  0  0  0
  -36.2419  150.3659    6.9168 H   0  0  0  0  0  0  0  0  0  0  0  0
  -38.0383  152.4197    3.7839 H   0  0  0  0  0  0  0  0  0  0  0  0
  -39.2661  150.7937    2.3455 H   0  0  0  0  0  0  0  0  0  0  0  0
  -41.7040  148.9270    3.0600 H   0  0  0  0  0  0  0  0  0  0  0  0
  -42.2010  147.0310    2.3250 H   0  0  0  0  0  0  0  0  0  0  0  0
  -40.8911  146.6639   -0.7960 H   0  0  0  0  0  0  0  0  0  0  0  0
  -40.2325  142.7457   -1.6568 H   0  0  0  0  0  0  0  0  0  0  0  0
  -41.4950  143.7799   -2.4074 H   0  0  0  0  0  0  0  0  0  0  0  0
  -39.7798  144.3136   -2.4074 H   0  0  0  0  0  0  0  0  0  0  0  0
  -39.3788  150.3278    7.3172 H   0  0  0  0  0  0  0  0  0  0  0  0
  -37.9381  154.7577    5.7282 H   0  0  0  0  0  0  0  0  0  0  0  0
  -38.8193  157.1163    4.0329 H   0  0  0  0  0  0  0  0  0  0  0  0
  -37.5762  158.0188    3.1019 H   0  0  0  0  0  0  0  0  0  0  0  0
  -37.5698  156.2225    3.1019 H   0  0  0  0  0  0  0  0  0  0  0  0
  1  2  1  0
  2  3  1  0
  3  4  1  0
  4  5  2  0
  5  6  1  0
  6  7  2  0
  7  8  1  0
  8  9  2  0
  9 10  1  0
 10 11  1  0
 11 12  1  0
 12 13  2  0
 13 14  1  0
 14 15  1  0
 15 16  1  0
 16 17  2  0
 16 18  1  0
 18 19  1  0
 19 20  1  0
 20 21  2  0
 21 22  1  0
 21 23  1  0
 23 24  1  0
 14 25  2  0
 25 26  1  0
 25 27  1  0
  9 28  1  0
 28 29  2  0
 29 30  1  0
 30 31  1  0
 31 32  1  0
 30  3  2  0
 28  5  1  0
 27 11  2  0
 24 19  2  0
  1 33  1  0
  1 34  1  0
  1 35  1  0
  4 36  1  0
  7 37  1  0
  8 38  1  0
 12 39  1  0
 13 40  1  0
 15 41  1  0
 18 42  1  0
 20 43  1  0
 22 44  1  0
 22 45  1  0
 22 46  1  0
 27 47  1  0
 29 48  1  0
 32 49  1  0
 32 50  1  0
 32 51  1  0
M  END
>  <meeko>  (8) 
{"is_sidechain": false}

>  <vina_affinity_kcal_mol>  (8) 
-8.207

>  <pose_rank>  (8) 
8

$$$$

     RDKit          3D

 51 54  0  0  0  0  0  0  0  0999 V2000
  -37.9380  169.2630  -11.6140 C   0  0  0  0  0  0  0  0  0  0  0  0
  -37.1270  168.2240  -12.1430 O   0  0  0  0  0  0  0  0  0  0  0  0
  -37.2410  166.9760  -11.5790 C   0  0  0  0  0  0  0  0  0  0  0  0
  -38.1270  165.9870  -12.0200 C   0  0  0  0  0  0  0  0  0  0  0  0
  -38.2000  164.7420  -11.4120 C   0  0  0  0  0  0  0  0  0  0  0  0
  -39.0780  163.8410  -11.8890 N   0  0  0  0  0  0  0  0  0  0  0  0
  -39.1560  162.6350  -11.2880 C   0  0  0  0  0  0  0  0  0  0  0  0
  -38.3790  162.2620  -10.2150 C   0  0  0  0  0  0  0  0  0  0  0  0
  -37.4540  163.1890   -9.7420 C   0  0  0  0  0  0  0  0  0  0  0  0
  -36.6720  162.8910   -8.6450 O   0  0  0  0  0  0  0  0  0  0  0  0
  -37.3200  162.6630   -7.4510 C   0  0  0  0  0  0  0  0  0  0  0  0
  -37.9190  161.4470   -7.1190 C   0  0  0  0  0  0  0  0  0  0  0  0
  -38.5320  161.2820   -5.8710 C   0  0  0  0  0  0  0  0  0  0  0  0
  -38.5440  162.3230   -4.9400 C   0  0  0  0  0  0  0  0  0  0  0  0
  -39.1400  162.2160   -3.6600 N   0  0  0  0  0  0  0  0  0  0  0  0
  -39.0510  161.1600   -2.7620 C   0  0  0  0  0  0  0  0  0  0  0  0
  -38.4800  160.1040   -2.9950 O   0  0  0  0  0  0  0  0  0  0  0  0
  -39.6930  161.4830   -1.5800 N   0  0  0  0  0  0  0  0  0  0  0  0
  -39.8500  160.6230   -0.5080 C   0  0  0  0  0  0  0  0  0  0  0  0
  -41.1020  160.3610    0.1030 C   0  0  0  0  0  0  0  0  0  0  0  0
  -40.8240  159.4640    1.1020 C   0  0  0  0  0  0  0  0  0  0  0  0
  -41.6260  158.7700    2.1230 C   0  0  0  0  0  0  0  0  0  0  0  0
  -39.4940  159.1950    1.0950 O   0  0  0  0  0  0  0  0  0  0  0  0
  -38.8860  159.9160    0.0870 N   0  0  0  0  0  0  0  0  0  0  0  0
  -37.9060  163.5320   -5.2800 C   0  0  0  0  0  0  0  0  0  0  0  0
  -37.8590  164.8570   -4.1630 Cl  0  0  0  0  0  0  0  0  0  0  0  0
  -37.2950  163.7020   -6.5240 C   0  0  0  0  0  0  0  0  0  0  0  0
  -37.3540  164.4690  -10.3220 C   0  0  0  0  0  0  0  0  0  0  0  0
  -36.4570  165.4620   -9.8690 C   0  0  0  0  0  0  0  0  0  0  0  0
  -36.3940  166.7110  -10.4900 C   0  0  0  0  0  0  0  0  0  0  0  0
  -35.5530  167.7270  -10.1140 O   0  0  0  0  0  0  0  0  0  0  0  0
  -34.6690  168.2530  -11.0940 C   0  0  0  0  0  0  0  0  0  0  0  0
  -37.9097  169.2267  -10.5150 H   0  0  0  0  0  0  0  0  0  0  0  0
  -37.5582  170.2361  -11.9587 H   0  0  0  0  0  0  0  0  0  0  0  0
  -38.9742  169.1309  -11.9587 H   0  0  0  0  0  0  0  0  0  0  0  0
  -38.7854  166.2030  -12.8743 H   0  0  0  0  0  0  0  0  0  0  0  0
  -39.8830  161.9078  -11.6786 H   0  0  0  0  0  0  0  0  0  0  0  0
  -38.4846  161.2709   -9.7496 H   0  0  0  0  0  0  0  0  0  0  0  0
  -37.9095  160.6160   -7.8397 H   0  0  0  0  0  0  0  0  0  0  0  0
  -39.0090  160.3228   -5.6213 H   0  0  0  0  0  0  0  0  0  0  0  0
  -39.8250  162.9310   -3.4560 H   0  0  0  0  0  0  0  0  0  0  0  0
  -39.9670  162.4380   -1.4270 H   0  0  0  0  0  0  0  0  0  0  0  0
  -42.0812  160.7842   -0.1653 H   0  0  0  0  0  0  0  0  0  0  0  0
  -41.2819  159.0678    3.1244 H   0  0  0  0  0  0  0  0  0  0  0  0
  -42.6854  159.0410    2.0037 H   0  0  0  0  0  0  0  0  0  0  0  0
  -41.5100  157.6827    2.0037 H   0  0  0  0  0  0  0  0  0  0  0  0
  -36.7967  164.6512   -6.7704 H   0  0  0  0  0  0  0  0  0  0  0  0
  -35.7984  165.2480   -9.0143 H   0  0  0  0  0  0  0  0  0  0  0  0
  -33.8261  168.7546  -10.5960 H   0  0  0  0  0  0  0  0  0  0  0  0
  -34.2890  167.4340  -11.7224 H   0  0  0  0  0  0  0  0  0  0  0  0
  -35.2075  168.9777  -11.7224 H   0  0  0  0  0  0  0  0  0  0  0  0
  1  2  1  0
  2  3  1  0
  3  4  1  0
  4  5  2  0
  5  6  1  0
  6  7  2  0
  7  8  1  0
  8  9  2  0
  9 10  1  0
 10 11  1  0
 11 12  1  0
 12 13  2  0
 13 14  1  0
 14 15  1  0
 15 16  1  0
 16 17  2  0
 16 18  1  0
 18 19  1  0
 19 20  1  0
 20 21  2  0
 21 22  1  0
 21 23  1  0
 23 24  1  0
 14 25  2  0
 25 26  1  0
 25 27  1  0
  9 28  1  0
 28 29  2  0
 29 30  1  0
 30 31  1  0
 31 32  1  0
 30  3  2  0
 28  5  1  0
 27 11  2  0
 24 19  2  0
  1 33  1  0
  1 34  1  0
  1 35  1  0
  4 36  1  0
  7 37  1  0
  8 38  1  0
 12 39  1  0
 13 40  1  0
 15 41  1  0
 18 42  1  0
 20 43  1  0
 22 44  1  0
 22 45  1  0
 22 46  1  0
 27 47  1  0
 29 48  1  0
 32 49  1  0
 32 50  1  0
 32 51  1  0
M  END
>  <meeko>  (9) 
{"is_sidechain": false}

>  <vina_affinity_kcal_mol>  (9) 
-8.206

>  <pose_rank>  (9) 
9

$$$$

     RDKit          3D

 51 54  0  0  0  0  0  0  0  0999 V2000
  -39.8630  159.0090    1.7830 C   0  0  0  0  0  0  0  0  0  0  0  0
  -38.7530  158.9870    0.8980 O   0  0  0  0  0  0  0  0  0  0  0  0
  -38.7740  159.8470   -0.1730 C   0  0  0  0  0  0  0  0  0  0  0  0
  -38.8010  161.2420   -0.0670 C   0  0  0  0  0  0  0  0  0  0  0  0
  -38.8220  162.0640   -1.1850 C   0  0  0  0  0  0  0  0  0  0  0  0
  -38.8490  163.3970   -1.0050 N   0  0  0  0  0  0  0  0  0  0  0  0
  -38.8820  164.1950   -2.0930 C   0  0  0  0  0  0  0  0  0  0  0  0
  -38.8790  163.7250   -3.3870 C   0  0  0  0  0  0  0  0  0  0  0  0
  -38.8240  162.3460   -3.5670 C   0  0  0  0  0  0  0  0  0  0  0  0
  -38.8570  161.8100   -4.8390 O   0  0  0  0  0  0  0  0  0  0  0  0
  -38.5710  162.6550   -5.8870 C   0  0  0  0  0  0  0  0  0  0  0  0
  -38.5940  164.0470   -5.7840 C   0  0  0  0  0  0  0  0  0  0  0  0
  -38.2600  164.8410   -6.8890 C   0  0  0  0  0  0  0  0  0  0  0  0
  -37.8910  164.2540   -8.1010 C   0  0  0  0  0  0  0  0  0  0  0  0
  -37.5360  165.0010   -9.2520 N   0  0  0  0  0  0  0  0  0  0  0  0
  -37.1650  166.3380   -9.3190 C   0  0  0  0  0  0  0  0  0  0  0  0
  -37.1650  167.1020   -8.3650 O   0  0  0  0  0  0  0  0  0  0  0  0
  -36.7970  166.6650  -10.6120 N   0  0  0  0  0  0  0  0  0  0  0  0
  -36.4460  167.9340  -11.0340 C   0  0  0  0  0  0  0  0  0  0  0  0
  -37.3640  169.0120  -11.1120 C   0  0  0  0  0  0  0  0  0  0  0  0
  -36.6200  170.0750  -11.5590 C   0  0  0  0  0  0  0  0  0  0  0  0
  -36.9110  171.4840  -11.8670 C   0  0  0  0  0  0  0  0  0  0  0  0
  -35.3360  169.6710  -11.7350 O   0  0  0  0  0  0  0  0  0  0  0  0
  -35.2260  168.3350  -11.4040 N   0  0  0  0  0  0  0  0  0  0  0  0
  -37.8430  162.8480   -8.1780 C   0  0  0  0  0  0  0  0  0  0  0  0
  -37.3680  162.0540   -9.6430 Cl  0  0  0  0  0  0  0  0  0  0  0  0
  -38.1770  162.0530   -7.0790 C   0  0  0  0  0  0  0  0  0  0  0  0
  -38.8130  161.4730   -2.4610 C   0  0  0  0  0  0  0  0  0  0  0  0
  -38.7870  160.0650   -2.5780 C   0  0  0  0  0  0  0  0  0  0  0  0
  -38.7670  159.2500   -1.4450 C   0  0  0  0  0  0  0  0  0  0  0  0
  -38.7400  157.8790   -1.4720 O   0  0  0  0  0  0  0  0  0  0  0  0
  -39.6230  157.2160   -2.3660 C   0  0  0  0  0  0  0  0  0  0  0  0
  -39.5033  159.0019    2.8225 H   0  0  0  0  0  0  0  0  0  0  0  0
  -40.4550  159.9191    1.6061 H   0  0  0  0  0  0  0  0  0  0  0  0
  -40.4906  158.1231    1.6061 H   0  0  0  0  0  0  0  0  0  0  0  0
  -38.8057  161.7010    0.9327 H   0  0  0  0  0  0  0  0  0  0  0  0
  -38.9131  165.2834   -1.9368 H   0  0  0  0  0  0  0  0  0  0  0  0
  -38.9185  164.4123   -4.2449 H   0  0  0  0  0  0  0  0  0  0  0  0
  -38.8752  164.5219   -4.8325 H   0  0  0  0  0  0  0  0  0  0  0  0
  -38.2887  165.9371   -6.8009 H   0  0  0  0  0  0  0  0  0  0  0  0
  -37.7250  164.5350  -10.1280 H   0  0  0  0  0  0  0  0  0  0  0  0
  -36.6580  165.9230  -11.2760 H   0  0  0  0  0  0  0  0  0  0  0  0
  -38.4365  168.9990  -10.8679 H   0  0  0  0  0  0  0  0  0  0  0  0
  -37.0274  172.0477  -10.9296 H   0  0  0  0  0  0  0  0  0  0  0  0
  -36.0820  171.9105  -12.4508 H   0  0  0  0  0  0  0  0  0  0  0  0
  -37.8411  171.5472  -12.4508 H   0  0  0  0  0  0  0  0  0  0  0  0
  -38.1290  160.9567   -7.1550 H   0  0  0  0  0  0  0  0  0  0  0  0
  -38.7825  159.6044   -3.5769 H   0  0  0  0  0  0  0  0  0  0  0  0
  -40.3727  156.6531   -1.7907 H   0  0  0  0  0  0  0  0  0  0  0  0
  -40.1292  157.9590   -2.9997 H   0  0  0  0  0  0  0  0  0  0  0  0
  -39.0507  156.5226   -2.9997 H   0  0  0  0  0  0  0  0  0  0  0  0
  1  2  1  0
  2  3  1  0
  3  4  1  0
  4  5  2  0
  5  6  1  0
  6  7  2  0
  7  8  1  0
  8  9  2  0
  9 10  1  0
 10 11  1  0
 11 12  1  0
 12 13  2  0
 13 14  1  0
 14 15  1  0
 15 16  1  0
 16 17  2  0
 16 18  1  0
 18 19  1  0
 19 20  1  0
 20 21  2  0
 21 22  1  0
 21 23  1  0
 23 24  1  0
 14 25  2  0
 25 26  1  0
 25 27  1  0
  9 28  1  0
 28 29  2  0
 29 30  1  0
 30 31  1  0
 31 32  1  0
 30  3  2  0
 28  5  1  0
 27 11  2  0
 24 19  2  0
  1 33  1  0
  1 34  1  0
  1 35  1  0
  4 36  1  0
  7 37  1  0
  8 38  1  0
 12 39  1  0
 13 40  1  0
 15 41  1  0
 18 42  1  0
 20 43  1  0
 22 44  1  0
 22 45  1  0
 22 46  1  0
 27 47  1  0
 29 48  1  0
 32 49  1  0
 32 50  1  0
 32 51  1  0
M  END
>  <meeko>  (10) 
{"is_sidechain": false}

>  <vina_affinity_kcal_mol>  (10) 
-8.169

>  <pose_rank>  (10) 
10

$$$$
