
     RDKit          3D

 42 45  0  0  0  0  0  0  0  0999 V2000
  -36.3700  161.1210   -8.0370 C   0  0  0  0  0  0  0  0  0  0  0  0
  -37.2890  162.1880   -7.6380 N   0  0  0  0  0  0  0  0  0  0  0  0
  -38.2290  162.5990   -8.6860 C   0  0  0  0  0  0  0  0  0  0  0  0
  -37.9850  161.9470   -6.4200 C   0  0  0  0  0  0  0  0  0  0  0  0
  -38.5270  160.6860   -6.1330 C   0  0  0  0  0  0  0  0  0  0  0  0
  -39.2400  160.4620   -4.9590 C   0  0  0  0  0  0  0  0  0  0  0  0
  -39.4420  161.5000   -4.0430 C   0  0  0  0  0  0  0  0  0  0  0  0
  -40.1760  161.1880   -2.8040 C   0  0  0  0  0  0  0  0  0  0  0  0
  -39.7150  160.4510   -1.7830 C   0  0  0  0  0  0  0  0  0  0  0  0
  -38.3680  159.7800   -1.6580 C   0  0  0  0  0  0  0  0  0  0  0  0
  -37.4340  159.7910   -2.4340 O   0  0  0  0  0  0  0  0  0  0  0  0
  -38.4070  159.1330   -0.4310 N   0  0  0  0  0  0  0  0  0  0  0  0
  -39.6240  159.3330    0.2140 C   0  0  0  0  0  0  0  0  0  0  0  0
  -39.9990  158.8370    1.4450 C   0  0  0  0  0  0  0  0  0  0  0  0
  -41.2760  159.1640    1.9070 C   0  0  0  0  0  0  0  0  0  0  0  0
  -42.1340  159.9700    1.1350 C   0  0  0  0  0  0  0  0  0  0  0  0
  -41.7320  160.4620   -0.1120 C   0  0  0  0  0  0  0  0  0  0  0  0
  -40.4660  160.1330   -0.5630 C   0  0  0  0  0  0  0  0  0  0  0  0
  -38.9130  162.7920   -4.2960 C   0  0  0  0  0  0  0  0  0  0  0  0
  -39.0890  163.8800   -3.4050 C   0  0  0  0  0  0  0  0  0  0  0  0
  -38.5540  165.1420   -3.6640 C   0  0  0  0  0  0  0  0  0  0  0  0
  -37.8250  165.3530   -4.8230 C   0  0  0  0  0  0  0  0  0  0  0  0
  -37.6410  164.3020   -5.7210 C   0  0  0  0  0  0  0  0  0  0  0  0
  -38.1760  163.0140   -5.4920 C   0  0  0  0  0  0  0  0  0  0  0  0
  -35.9553  160.6395   -7.1391 H   0  0  0  0  0  0  0  0  0  0  0  0
  -36.9125  160.3747   -8.6359 H   0  0  0  0  0  0  0  0  0  0  0  0
  -35.5515  161.5469   -8.6359 H   0  0  0  0  0  0  0  0  0  0  0  0
  -39.1430  162.9986   -8.2225 H   0  0  0  0  0  0  0  0  0  0  0  0
  -37.7647  163.3762   -9.3108 H   0  0  0  0  0  0  0  0  0  0  0  0
  -38.4843  161.7304   -9.3108 H   0  0  0  0  0  0  0  0  0  0  0  0
  -38.3864  159.8610   -6.8469 H   0  0  0  0  0  0  0  0  0  0  0  0
  -39.6475  159.4619   -4.7498 H   0  0  0  0  0  0  0  0  0  0  0  0
  -41.1930  161.5961   -2.7080 H   0  0  0  0  0  0  0  0  0  0  0  0
  -37.6320  158.5940   -0.0800 H   0  0  0  0  0  0  0  0  0  0  0  0
  -39.3194  158.2088    2.0395 H   0  0  0  0  0  0  0  0  0  0  0  0
  -41.6146  158.7880    2.8837 H   0  0  0  0  0  0  0  0  0  0  0  0
  -43.1354  160.2168    1.5176 H   0  0  0  0  0  0  0  0  0  0  0  0
  -42.4025  161.0915   -0.7155 H   0  0  0  0  0  0  0  0  0  0  0  0
  -39.6651  163.7246   -2.4809 H   0  0  0  0  0  0  0  0  0  0  0  0
  -38.7102  165.9654   -2.9516 H   0  0  0  0  0  0  0  0  0  0  0  0
  -37.3942  166.3430   -5.0336 H   0  0  0  0  0  0  0  0  0  0  0  0
  -37.0603  164.4814   -6.6378 H   0  0  0  0  0  0  0  0  0  0  0  0
  1  2  1  0
  2  3  1  0
  2  4  1  0
  4  5  2  0
  5  6  1  0
  6  7  2  0
  7  8  1  0
  8  9  2  0
  9 10  1  0
 10 11  2  0
 10 12  1  0
 12 13  1  0
 13 14  2  0
 14 15  1  0
 15 16  2  0
 16 17  1  0
 17 18  2  0
  7 19  1  0
 19 20  2  0
 20 21  1  0
 21 22  2  0
 22 23  1  0
 23 24  2  0
 24  4  1  0
 18  9  1  0
 24 19  1  0
 18 13  1  0
  1 25  1  0
  1 26  1  0
  1 27  1  0
  3 28  1  0
  3 29  1  0
  3 30  1  0
  5 31  1  0
  6 32  1  0
  8 33  1  0
 12 34  1  0
 14 35  1  0
 15 36  1  0
 16 37  1  0
 17 38  1  0
 20 39  1  0
 21 40  1  0
 22 41  1  0
 23 42  1  0
M  END
>  <meeko>  (1) 
{"is_sidechain": false}

>  <vina_affinity_kcal_mol>  (1) 
-9.302

>  <pose_rank>  (1) 
1

$$$$

     RDKit          3D

 42 45  0  0  0  0  0  0  0  0999 V2000
  -38.5870  156.5870    2.7190 C   0  0  0  0  0  0  0  0  0  0  0  0
  -39.0010  157.9880    2.8000 N   0  0  0  0  0  0  0  0  0  0  0  0
  -38.2820  158.7740    3.8090 C   0  0  0  0  0  0  0  0  0  0  0  0
  -39.0090  158.6770    1.5540 C   0  0  0  0  0  0  0  0  0  0  0  0
  -37.8520  158.7610    0.7660 C   0  0  0  0  0  0  0  0  0  0  0  0
  -37.8510  159.4670   -0.4340 C   0  0  0  0  0  0  0  0  0  0  0  0
  -39.0070  160.1220   -0.8720 C   0  0  0  0  0  0  0  0  0  0  0  0
  -38.9490  160.8230   -2.1660 C   0  0  0  0  0  0  0  0  0  0  0  0
  -38.8050  162.1450   -2.3370 C   0  0  0  0  0  0  0  0  0  0  0  0
  -38.6710  163.2080   -1.2730 C   0  0  0  0  0  0  0  0  0  0  0  0
  -38.6430  163.0810   -0.0650 O   0  0  0  0  0  0  0  0  0  0  0  0
  -38.5730  164.4020   -1.9740 N   0  0  0  0  0  0  0  0  0  0  0  0
  -38.6280  164.1930   -3.3490 C   0  0  0  0  0  0  0  0  0  0  0  0
  -38.5580  165.1540   -4.3350 C   0  0  0  0  0  0  0  0  0  0  0  0
  -38.6340  164.7200   -5.6600 C   0  0  0  0  0  0  0  0  0  0  0  0
  -38.7740  163.3530   -5.9620 C   0  0  0  0  0  0  0  0  0  0  0  0
  -38.8420  162.3940   -4.9440 C   0  0  0  0  0  0  0  0  0  0  0  0
  -38.7680  162.8310   -3.6330 C   0  0  0  0  0  0  0  0  0  0  0  0
  -40.1980  160.0640   -0.1030 C   0  0  0  0  0  0  0  0  0  0  0  0
  -41.3970  160.7100   -0.4980 C   0  0  0  0  0  0  0  0  0  0  0  0
  -42.5620  160.6360    0.2650 C   0  0  0  0  0  0  0  0  0  0  0  0
  -42.5650  159.9120    1.4460 C   0  0  0  0  0  0  0  0  0  0  0  0
  -41.3970  159.2710    1.8630 C   0  0  0  0  0  0  0  0  0  0  0  0
  -40.1980  159.3330    1.1170 C   0  0  0  0  0  0  0  0  0  0  0  0
  -38.4670  156.1809    3.7342 H   0  0  0  0  0  0  0  0  0  0  0  0
  -39.3527  156.0089    2.1810 H   0  0  0  0  0  0  0  0  0  0  0  0
  -37.6301  156.5180    2.1810 H   0  0  0  0  0  0  0  0  0  0  0  0
  -38.5837  158.4442    4.8141 H   0  0  0  0  0  0  0  0  0  0  0  0
  -37.1989  158.6273    3.6847 H   0  0  0  0  0  0  0  0  0  0  0  0
  -38.5243  159.8397    3.6847 H   0  0  0  0  0  0  0  0  0  0  0  0
  -36.9311  158.2614    1.1012 H   0  0  0  0  0  0  0  0  0  0  0  0
  -36.9352  159.5101   -1.0418 H   0  0  0  0  0  0  0  0  0  0  0  0
  -39.0312  160.2067   -3.0735 H   0  0  0  0  0  0  0  0  0  0  0  0
  -38.4740  165.2920   -1.5130 H   0  0  0  0  0  0  0  0  0  0  0  0
  -38.4467  166.2201   -4.0878 H   0  0  0  0  0  0  0  0  0  0  0  0
  -38.5839  165.4551   -6.4768 H   0  0  0  0  0  0  0  0  0  0  0  0
  -38.8308  163.0330   -7.0129 H   0  0  0  0  0  0  0  0  0  0  0  0
  -38.9510  161.3250   -5.1793 H   0  0  0  0  0  0  0  0  0  0  0  0
  -41.4085  161.2869   -1.4345 H   0  0  0  0  0  0  0  0  0  0  0  0
  -43.4749  161.1505   -0.0696 H   0  0  0  0  0  0  0  0  0  0  0  0
  -43.4811  159.8427    2.0509 H   0  0  0  0  0  0  0  0  0  0  0  0
  -41.4102  158.6991    2.8026 H   0  0  0  0  0  0  0  0  0  0  0  0
  1  2  1  0
  2  3  1  0
  2  4  1  0
  4  5  2  0
  5  6  1  0
  6  7  2  0
  7  8  1  0
  8  9  2  0
  9 10  1  0
 10 11  2  0
 10 12  1  0
 12 13  1  0
 13 14  2  0
 14 15  1  0
 15 16  2  0
 16 17  1  0
 17 18  2  0
  7 19  1  0
 19 20  2  0
 20 21  1  0
 21 22  2  0
 22 23  1  0
 23 24  2  0
 24  4  1  0
 18  9  1  0
 24 19  1  0
 18 13  1  0
  1 25  1  0
  1 26  1  0
  1 27  1  0
  3 28  1  0
  3 29  1  0
  3 30  1  0
  5 31  1  0
  6 32  1  0
  8 33  1  0
 12 34  1  0
 14 35  1  0
 15 36  1  0
 16 37  1  0
 17 38  1  0
 20 39  1  0
 21 40  1  0
 22 41  1  0
 23 42  1  0
M  END
>  <meeko>  (2) 
{"is_sidechain": false}

>  <vina_affinity_kcal_mol>  (2) 
-9.021

>  <pose_rank>  (2) 
2

$$$$

     RDKit          3D

 42 45  0  0  0  0  0  0  0  0999 V2000
  -37.9250  157.5550    2.7460 C   0  0  0  0  0  0  0  0  0  0  0  0
  -39.1960  157.8180    2.0710 N   0  0  0  0  0  0  0  0  0  0  0  0
  -40.3350  158.0010    2.9770 C   0  0  0  0  0  0  0  0  0  0  0  0
  -39.1530  158.8730    1.1160 C   0  0  0  0  0  0  0  0  0  0  0  0
  -37.9460  159.2510    0.5090 C   0  0  0  0  0  0  0  0  0  0  0  0
  -37.8990  160.3070   -0.3960 C   0  0  0  0  0  0  0  0  0  0  0  0
  -39.0570  161.0260   -0.7090 C   0  0  0  0  0  0  0  0  0  0  0  0
  -38.9450  162.1100   -1.7000 C   0  0  0  0  0  0  0  0  0  0  0  0
  -38.8590  161.9540   -3.0290 C   0  0  0  0  0  0  0  0  0  0  0  0
  -38.8570  160.6630   -3.8110 C   0  0  0  0  0  0  0  0  0  0  0  0
  -38.9540  159.5220   -3.4050 O   0  0  0  0  0  0  0  0  0  0  0  0
  -38.7250  161.0530   -5.1380 N   0  0  0  0  0  0  0  0  0  0  0  0
  -38.6500  162.4370   -5.2580 C   0  0  0  0  0  0  0  0  0  0  0  0
  -38.5180  163.1590   -6.4260 C   0  0  0  0  0  0  0  0  0  0  0  0
  -38.4630  164.5500   -6.3160 C   0  0  0  0  0  0  0  0  0  0  0  0
  -38.5410  165.1760   -5.0580 C   0  0  0  0  0  0  0  0  0  0  0  0
  -38.6750  164.4220   -3.8860 C   0  0  0  0  0  0  0  0  0  0  0  0
  -38.7280  163.0440   -4.0020 C   0  0  0  0  0  0  0  0  0  0  0  0
  -40.2980  160.6780   -0.1150 C   0  0  0  0  0  0  0  0  0  0  0  0
  -41.5020  161.3720   -0.3930 C   0  0  0  0  0  0  0  0  0  0  0  0
  -42.7160  161.0120    0.1920 C   0  0  0  0  0  0  0  0  0  0  0  0
  -42.7620  159.9450    1.0740 C   0  0  0  0  0  0  0  0  0  0  0  0
  -41.5910  159.2470    1.3720 C   0  0  0  0  0  0  0  0  0  0  0  0
  -40.3440  159.5920    0.8010 C   0  0  0  0  0  0  0  0  0  0  0  0
  -38.0750  157.5860    3.8353 H   0  0  0  0  0  0  0  0  0  0  0  0
  -37.5541  156.5611    2.4551 H   0  0  0  0  0  0  0  0  0  0  0  0
  -37.1902  158.3201    2.4551 H   0  0  0  0  0  0  0  0  0  0  0  0
  -39.9873  157.9451    4.0191 H   0  0  0  0  0  0  0  0  0  0  0  0
  -40.7935  158.9843    2.7957 H   0  0  0  0  0  0  0  0  0  0  0  0
  -41.0784  157.2108    2.7957 H   0  0  0  0  0  0  0  0  0  0  0  0
  -37.0229  158.7044    0.7521 H   0  0  0  0  0  0  0  0  0  0  0  0
  -36.9436  160.5784   -0.8689 H   0  0  0  0  0  0  0  0  0  0  0  0
  -38.9306  163.1404   -1.3151 H   0  0  0  0  0  0  0  0  0  0  0  0
  -38.6920  160.3890   -5.8950 H   0  0  0  0  0  0  0  0  0  0  0  0
  -38.4585  162.6594   -7.4042 H   0  0  0  0  0  0  0  0  0  0  0  0
  -38.3575  165.1634   -7.2230 H   0  0  0  0  0  0  0  0  0  0  0  0
  -38.4960  166.2732   -4.9947 H   0  0  0  0  0  0  0  0  0  0  0  0
  -38.7363  164.9103   -2.9023 H   0  0  0  0  0  0  0  0  0  0  0  0
  -41.4784  162.2211   -1.0919 H   0  0  0  0  0  0  0  0  0  0  0  0
  -43.6321  161.5725   -0.0459 H   0  0  0  0  0  0  0  0  0  0  0  0
  -43.7154  159.6498    1.5365 H   0  0  0  0  0  0  0  0  0  0  0  0
  -41.6394  158.4012    2.0736 H   0  0  0  0  0  0  0  0  0  0  0  0
  1  2  1  0
  2  3  1  0
  2  4  1  0
  4  5  2  0
  5  6  1  0
  6  7  2  0
  7  8  1  0
  8  9  2  0
  9 10  1  0
 10 11  2  0
 10 12  1  0
 12 13  1  0
 13 14  2  0
 14 15  1  0
 15 16  2  0
 16 17  1  0
 17 18  2  0
  7 19  1  0
 19 20  2  0
 20 21  1  0
 21 22  2  0
 22 23  1  0
 23 24  2  0
 24  4  1  0
 18  9  1  0
 24 19  1  0
 18 13  1  0
  1 25  1  0
  1 26  1  0
  1 27  1  0
  3 28  1  0
  3 29  1  0
  3 30  1  0
  5 31  1  0
  6 32  1  0
  8 33  1  0
 12 34  1  0
 14 35  1  0
 15 36  1  0
 16 37  1  0
 17 38  1  0
 20 39  1  0
 21 40  1  0
 22 41  1  0
 23 42  1  0
M  END
>  <meeko>  (3) 
{"is_sidechain": false}

>  <vina_affinity_kcal_mol>  (3) 
-8.621

>  <pose_rank>  (3) 
3

$$$$

     RDKit          3D

 42 45  0  0  0  0  0  0  0  0999 V2000
  -38.2350  165.5350  -10.9680 C   0  0  0  0  0  0  0  0  0  0  0  0
  -37.3260  165.6300   -9.8260 N   0  0  0  0  0  0  0  0  0  0  0  0
  -37.0860  166.9980   -9.3560 C   0  0  0  0  0  0  0  0  0  0  0  0
  -37.6600  164.7840   -8.7300 C   0  0  0  0  0  0  0  0  0  0  0  0
  -38.2320  165.3070   -7.5610 C   0  0  0  0  0  0  0  0  0  0  0  0
  -38.5240  164.4850   -6.4760 C   0  0  0  0  0  0  0  0  0  0  0  0
  -38.2380  163.1170   -6.5260 C   0  0  0  0  0  0  0  0  0  0  0  0
  -38.6020  162.2970   -5.3570 C   0  0  0  0  0  0  0  0  0  0  0  0
  -38.6510  162.7210   -4.0860 C   0  0  0  0  0  0  0  0  0  0  0  0
  -38.3530  164.1040   -3.5580 C   0  0  0  0  0  0  0  0  0  0  0  0
  -38.0360  165.1040   -4.1700 O   0  0  0  0  0  0  0  0  0  0  0  0
  -38.5280  164.0040   -2.1840 N   0  0  0  0  0  0  0  0  0  0  0  0
  -38.9030  162.7170   -1.8090 C   0  0  0  0  0  0  0  0  0  0  0  0
  -39.1600  162.2710   -0.5300 C   0  0  0  0  0  0  0  0  0  0  0  0
  -39.5250  160.9310   -0.3790 C   0  0  0  0  0  0  0  0  0  0  0  0
  -39.6240  160.0830   -1.4990 C   0  0  0  0  0  0  0  0  0  0  0  0
  -39.3590  160.5590   -2.7880 C   0  0  0  0  0  0  0  0  0  0  0  0
  -38.9960  161.8870   -2.9290 C   0  0  0  0  0  0  0  0  0  0  0  0
  -37.6560  162.5480   -7.6890 C   0  0  0  0  0  0  0  0  0  0  0  0
  -37.3440  161.1700   -7.7940 C   0  0  0  0  0  0  0  0  0  0  0  0
  -36.7810  160.6240   -8.9480 C   0  0  0  0  0  0  0  0  0  0  0  0
  -36.5150  161.4430  -10.0340 C   0  0  0  0  0  0  0  0  0  0  0  0
  -36.8070  162.8050   -9.9570 C   0  0  0  0  0  0  0  0  0  0  0  0
  -37.3700  163.3900   -8.7990 C   0  0  0  0  0  0  0  0  0  0  0  0
  -39.2682  165.4270  -10.6063 H   0  0  0  0  0  0  0  0  0  0  0  0
  -38.1536  166.4466  -11.5783 H   0  0  0  0  0  0  0  0  0  0  0  0
  -37.9668  164.6600  -11.5783 H   0  0  0  0  0  0  0  0  0  0  0  0
  -37.0834  167.0127   -8.2561 H   0  0  0  0  0  0  0  0  0  0  0  0
  -36.1126  167.3486   -9.7297 H   0  0  0  0  0  0  0  0  0  0  0  0
  -37.8819  167.6590   -9.7297 H   0  0  0  0  0  0  0  0  0  0  0  0
  -38.4532  166.3828   -7.5006 H   0  0  0  0  0  0  0  0  0  0  0  0
  -38.9828  164.9145   -5.5732 H   0  0  0  0  0  0  0  0  0  0  0  0
  -38.8561  161.2432   -5.5438 H   0  0  0  0  0  0  0  0  0  0  0  0
  -38.3930  164.7860   -1.5650 H   0  0  0  0  0  0  0  0  0  0  0  0
  -39.0808  162.9434    0.3369 H   0  0  0  0  0  0  0  0  0  0  0  0
  -39.7372  160.5343    0.6248 H   0  0  0  0  0  0  0  0  0  0  0  0
  -39.9138  159.0312   -1.3586 H   0  0  0  0  0  0  0  0  0  0  0  0
  -39.4369  159.8972   -3.6632 H   0  0  0  0  0  0  0  0  0  0  0  0
  -37.5521  160.5099   -6.9390 H   0  0  0  0  0  0  0  0  0  0  0  0
  -36.5496  159.5497   -8.9956 H   0  0  0  0  0  0  0  0  0  0  0  0
  -36.0765  161.0218  -10.9507 H   0  0  0  0  0  0  0  0  0  0  0  0
  -36.5923  163.4450  -10.8255 H   0  0  0  0  0  0  0  0  0  0  0  0
  1  2  1  0
  2  3  1  0
  2  4  1  0
  4  5  2  0
  5  6  1  0
  6  7  2  0
  7  8  1  0
  8  9  2  0
  9 10  1  0
 10 11  2  0
 10 12  1  0
 12 13  1  0
 13 14  2  0
 14 15  1  0
 15 16  2  0
 16 17  1  0
 17 18  2  0
  7 19  1  0
 19 20  2  0
 20 21  1  0
 21 22  2  0
 22 23  1  0
 23 24  2  0
 24  4  1  0
 18  9  1  0
 24 19  1  0
 18 13  1  0
  1 25  1  0
  1 26  1  0
  1 27  1  0
  3 28  1  0
  3 29  1  0
  3 30  1  0
  5 31  1  0
  6 32  1  0
  8 33  1  0
 12 34  1  0
 14 35  1  0
 15 36  1  0
 16 37  1  0
 17 38  1  0
 20 39  1  0
 21 40  1  0
 22 41  1  0
 23 42  1  0
M  END
>  <meeko>  (4) 
{"is_sidechain": false}

>  <vina_affinity_kcal_mol>  (4) 
-8.002

>  <pose_rank>  (4) 
4

$$$$

     RDKit          3D

 42 45  0  0  0  0  0  0  0  0999 V2000
  -33.7260  149.3570    2.1060 C   0  0  0  0  0  0  0  0  0  0  0  0
  -34.1380  147.9800    1.8340 N   0  0  0  0  0  0  0  0  0  0  0  0
  -34.4950  147.2080    3.0300 C   0  0  0  0  0  0  0  0  0  0  0  0
  -35.1520  147.8490    0.8430 C   0  0  0  0  0  0  0  0  0  0  0  0
  -36.4250  148.4050    1.0320 C   0  0  0  0  0  0  0  0  0  0  0  0
  -37.4270  148.2440    0.0790 C   0  0  0  0  0  0  0  0  0  0  0  0
  -37.1860  147.5080   -1.0860 C   0  0  0  0  0  0  0  0  0  0  0  0
  -38.2770  147.4040   -2.0690 C   0  0  0  0  0  0  0  0  0  0  0  0
  -39.2120  146.4430   -2.1050 C   0  0  0  0  0  0  0  0  0  0  0  0
  -39.3690  145.2680   -1.1710 C   0  0  0  0  0  0  0  0  0  0  0  0
  -38.7050  144.9700   -0.1990 O   0  0  0  0  0  0  0  0  0  0  0  0
  -40.4690  144.5730   -1.6570 N   0  0  0  0  0  0  0  0  0  0  0  0
  -41.0080  145.1920   -2.7810 C   0  0  0  0  0  0  0  0  0  0  0  0
  -42.1010  144.7730   -3.5110 C   0  0  0  0  0  0  0  0  0  0  0  0
  -42.4730  145.5500   -4.6100 C   0  0  0  0  0  0  0  0  0  0  0  0
  -41.7530  146.7120   -4.9460 C   0  0  0  0  0  0  0  0  0  0  0  0
  -40.6470  147.1180   -4.1900 C   0  0  0  0  0  0  0  0  0  0  0  0
  -40.2830  146.3420   -3.1030 C   0  0  0  0  0  0  0  0  0  0  0  0
  -35.9120  146.9260   -1.3150 C   0  0  0  0  0  0  0  0  0  0  0  0
  -35.6120  146.1690   -2.4750 C   0  0  0  0  0  0  0  0  0  0  0  0
  -34.3520  145.6110   -2.6900 C   0  0  0  0  0  0  0  0  0  0  0  0
  -33.3520  145.7950   -1.7500 C   0  0  0  0  0  0  0  0  0  0  0  0
  -33.6190  146.5300   -0.5940 C   0  0  0  0  0  0  0  0  0  0  0  0
  -34.8880  147.1020   -0.3430 C   0  0  0  0  0  0  0  0  0  0  0  0
  -33.6780  149.5174    3.1932 H   0  0  0  0  0  0  0  0  0  0  0  0
  -32.7346  149.5371    1.6647 H   0  0  0  0  0  0  0  0  0  0  0  0
  -34.4555  150.0520    1.6647 H   0  0  0  0  0  0  0  0  0  0  0  0
  -34.2295  147.7822    3.9299 H   0  0  0  0  0  0  0  0  0  0  0  0
  -35.5768  147.0085    3.0283 H   0  0  0  0  0  0  0  0  0  0  0  0
  -33.9464  146.2546    3.0283 H   0  0  0  0  0  0  0  0  0  0  0  0
  -36.6354  148.9773    1.9475 H   0  0  0  0  0  0  0  0  0  0  0  0
  -38.4151  148.6987    0.2432 H   0  0  0  0  0  0  0  0  0  0  0  0
  -38.3301  148.1839   -2.8429 H   0  0  0  0  0  0  0  0  0  0  0  0
  -40.8090  143.7300   -1.2240 H   0  0  0  0  0  0  0  0  0  0  0  0
  -42.6569  143.8638   -3.2384 H   0  0  0  0  0  0  0  0  0  0  0  0
  -43.3382  145.2508   -5.2199 H   0  0  0  0  0  0  0  0  0  0  0  0
  -42.0640  147.3098   -5.8154 H   0  0  0  0  0  0  0  0  0  0  0  0
  -40.0842  148.0261   -4.4518 H   0  0  0  0  0  0  0  0  0  0  0  0
  -36.3977  146.0168   -3.2296 H   0  0  0  0  0  0  0  0  0  0  0  0
  -34.1537  145.0279   -3.6014 H   0  0  0  0  0  0  0  0  0  0  0  0
  -32.3531  145.3644   -1.9134 H   0  0  0  0  0  0  0  0  0  0  0  0
  -32.8168  146.6689    0.1457 H   0  0  0  0  0  0  0  0  0  0  0  0
  1  2  1  0
  2  3  1  0
  2  4  1  0
  4  5  2  0
  5  6  1  0
  6  7  2  0
  7  8  1  0
  8  9  2  0
  9 10  1  0
 10 11  2  0
 10 12  1  0
 12 13  1  0
 13 14  2  0
 14 15  1  0
 15 16  2  0
 16 17  1  0
 17 18  2  0
  7 19  1  0
 19 20  2  0
 20 21  1  0
 21 22  2  0
 22 23  1  0
 23 24  2  0
 24  4  1  0
 18  9  1  0
 24 19  1  0
 18 13  1  0
  1 25  1  0
  1 26  1  0
  1 27  1  0
  3 28  1  0
  3 29  1  0
  3 30  1  0
  5 31  1  0
  6 32  1  0
  8 33  1  0
 12 34  1  0
 14 35  1  0
 15 36  1  0
 16 37  1  0
 17 38  1  0
 20 39  1  0
 21 40  1  0
 22 41  1  0
 23 42  1  0
M  END
>  <meeko>  (5) 
{"is_sidechain": false}

>  <vina_affinity_kcal_mol>  (5) 
-7.955

>  <pose_rank>  (5) 
5

$$$$

     RDKit          3D

 42 45  0  0  0  0  0  0  0  0999 V2000
  -35.2280  157.7640    4.9240 C   0  0  0  0  0  0  0  0  0  0  0  0
  -35.4060  157.2290    6.2740 N   0  0  0  0  0  0  0  0  0  0  0  0
  -36.0110  158.1700    7.2220 C   0  0  0  0  0  0  0  0  0  0  0  0
  -36.0750  155.9740    6.3310 C   0  0  0  0  0  0  0  0  0  0  0  0
  -37.4720  155.9030    6.4270 C   0  0  0  0  0  0  0  0  0  0  0  0
  -38.1240  154.6760    6.5210 C   0  0  0  0  0  0  0  0  0  0  0  0
  -37.3920  153.4840    6.5350 C   0  0  0  0  0  0  0  0  0  0  0  0
  -38.1430  152.2190    6.6020 C   0  0  0  0  0  0  0  0  0  0  0  0
  -38.6980  151.5790    5.5620 C   0  0  0  0  0  0  0  0  0  0  0  0
  -38.6870  151.9900    4.1100 C   0  0  0  0  0  0  0  0  0  0  0  0
  -38.1620  152.9540    3.5910 O   0  0  0  0  0  0  0  0  0  0  0  0
  -39.4160  151.0030    3.4580 N   0  0  0  0  0  0  0  0  0  0  0  0
  -39.8690  150.0320    4.3450 C   0  0  0  0  0  0  0  0  0  0  0  0
  -40.6180  148.9150    4.0370 C   0  0  0  0  0  0  0  0  0  0  0  0
  -40.9650  148.0670    5.0900 C   0  0  0  0  0  0  0  0  0  0  0  0
  -40.5600  148.3520    6.4070 C   0  0  0  0  0  0  0  0  0  0  0  0
  -39.8000  149.4920    6.6960 C   0  0  0  0  0  0  0  0  0  0  0  0
  -39.4600  150.3290    5.6480 C   0  0  0  0  0  0  0  0  0  0  0  0
  -35.9760  153.5120    6.4430 C   0  0  0  0  0  0  0  0  0  0  0  0
  -35.1840  152.3360    6.4540 C   0  0  0  0  0  0  0  0  0  0  0  0
  -33.7940  152.3800    6.3530 C   0  0  0  0  0  0  0  0  0  0  0  0
  -33.1520  153.6030    6.2360 C   0  0  0  0  0  0  0  0  0  0  0  0
  -33.9060  154.7770    6.2280 C   0  0  0  0  0  0  0  0  0  0  0  0
  -35.3160  154.7670    6.3360 C   0  0  0  0  0  0  0  0  0  0  0  0
  -34.8813  158.8061    4.9853 H   0  0  0  0  0  0  0  0  0  0  0  0
  -34.4822  157.1605    4.3858 H   0  0  0  0  0  0  0  0  0  0  0  0
  -36.1867  157.7276    4.3858 H   0  0  0  0  0  0  0  0  0  0  0  0
  -35.7997  157.8413    8.2503 H   0  0  0  0  0  0  0  0  0  0  0  0
  -35.5881  159.1730    7.0634 H   0  0  0  0  0  0  0  0  0  0  0  0
  -37.0991  158.2016    7.0634 H   0  0  0  0  0  0  0  0  0  0  0  0
  -38.0624  156.8312    6.4281 H   0  0  0  0  0  0  0  0  0  0  0  0
  -39.2217  154.6439    6.5846 H   0  0  0  0  0  0  0  0  0  0  0  0
  -38.2592  151.7576    7.5938 H   0  0  0  0  0  0  0  0  0  0  0  0
  -39.5760  151.0190    2.4630 H   0  0  0  0  0  0  0  0  0  0  0  0
  -40.9290  148.7014    3.0037 H   0  0  0  0  0  0  0  0  0  0  0  0
  -41.5620  147.1655    4.8879 H   0  0  0  0  0  0  0  0  0  0  0  0
  -40.8445  147.6694    7.2213 H   0  0  0  0  0  0  0  0  0  0  0  0
  -39.4828  149.7154    7.7253 H   0  0  0  0  0  0  0  0  0  0  0  0
  -35.6813  151.3591    6.5450 H   0  0  0  0  0  0  0  0  0  0  0  0
  -33.2094  151.4483    6.3661 H   0  0  0  0  0  0  0  0  0  0  0  0
  -32.0563  153.6476    6.1501 H   0  0  0  0  0  0  0  0  0  0  0  0
  -33.3865  155.7421    6.1346 H   0  0  0  0  0  0  0  0  0  0  0  0
  1  2  1  0
  2  3  1  0
  2  4  1  0
  4  5  2  0
  5  6  1  0
  6  7  2  0
  7  8  1  0
  8  9  2  0
  9 10  1  0
 10 11  2  0
 10 12  1  0
 12 13  1  0
 13 14  2  0
 14 15  1  0
 15 16  2  0
 16 17  1  0
 17 18  2  0
  7 19  1  0
 19 20  2  0
 20 21  1  0
 21 22  2  0
 22 23  1  0
 23 24  2  0
 24  4  1  0
 18  9  1  0
 24 19  1  0
 18 13  1  0
  1 25  1  0
  1 26  1  0
  1 27  1  0
  3 28  1  0
  3 29  1  0
  3 30  1  0
  5 31  1  0
  6 32  1  0
  8 33  1  0
 12 34  1  0
 14 35  1  0
 15 36  1  0
 16 37  1  0
 17 38  1  0
 20 39  1  0
 21 40  1  0
 22 41  1  0
 23 42  1  0
M  END
>  <meeko>  (6) 
{"is_sidechain": false}

>  <vina_affinity_kcal_mol>  (6) 
-7.874

>  <pose_rank>  (6) 
6

$$$$

     RDKit          3D

 42 45  0  0  0  0  0  0  0  0999 V2000
  -34.4920  147.5040    7.2290 C   0  0  0  0  0  0  0  0  0  0  0  0
  -35.8300  148.0150    7.5280 N   0  0  0  0  0  0  0  0  0  0  0  0
  -36.3330  147.6530    8.8580 C   0  0  0  0  0  0  0  0  0  0  0  0
  -35.9950  149.4120    7.3030 C   0  0  0  0  0  0  0  0  0  0  0  0
  -35.2590  150.3540    8.0360 C   0  0  0  0  0  0  0  0  0  0  0  0
  -35.4480  151.7200    7.8420 C   0  0  0  0  0  0  0  0  0  0  0  0
  -36.3910  152.1810    6.9170 C   0  0  0  0  0  0  0  0  0  0  0  0
  -36.5180  153.6370    6.7360 C   0  0  0  0  0  0  0  0  0  0  0  0
  -35.6940  154.4140    6.0180 C   0  0  0  0  0  0  0  0  0  0  0  0
  -34.4680  153.9950    5.2420 C   0  0  0  0  0  0  0  0  0  0  0  0
  -34.0000  152.8850    5.0930 O   0  0  0  0  0  0  0  0  0  0  0  0
  -33.9690  155.1750    4.7050 N   0  0  0  0  0  0  0  0  0  0  0  0
  -34.7520  156.2690    5.0600 C   0  0  0  0  0  0  0  0  0  0  0  0
  -34.5460  157.5850    4.7000 C   0  0  0  0  0  0  0  0  0  0  0  0
  -35.4610  158.5290    5.1710 C   0  0  0  0  0  0  0  0  0  0  0  0
  -36.5450  158.1380    5.9790 C   0  0  0  0  0  0  0  0  0  0  0  0
  -36.7340  156.7970    6.3320 C   0  0  0  0  0  0  0  0  0  0  0  0
  -35.8230  155.8670    5.8630 C   0  0  0  0  0  0  0  0  0  0  0  0
  -37.1580  151.2600    6.1570 C   0  0  0  0  0  0  0  0  0  0  0  0
  -38.1280  151.6710    5.2080 C   0  0  0  0  0  0  0  0  0  0  0  0
  -38.8670  150.7530    4.4620 C   0  0  0  0  0  0  0  0  0  0  0  0
  -38.6580  149.3960    4.6410 C   0  0  0  0  0  0  0  0  0  0  0  0
  -37.7140  148.9620    5.5730 C   0  0  0  0  0  0  0  0  0  0  0  0
  -36.9540  149.8660    6.3510 C   0  0  0  0  0  0  0  0  0  0  0  0
  -33.9587  147.3003    8.1693 H   0  0  0  0  0  0  0  0  0  0  0  0
  -34.5761  146.5747    6.6465 H   0  0  0  0  0  0  0  0  0  0  0  0
  -33.9352  148.2528    6.6465 H   0  0  0  0  0  0  0  0  0  0  0  0
  -35.6957  148.1117    9.6284 H   0  0  0  0  0  0  0  0  0  0  0  0
  -37.3648  148.0170    8.9713 H   0  0  0  0  0  0  0  0  0  0  0  0
  -36.3156  146.5590    8.9713 H   0  0  0  0  0  0  0  0  0  0  0  0
  -34.5213  150.0088    8.7753 H   0  0  0  0  0  0  0  0  0  0  0  0
  -34.8518  152.4415    8.4200 H   0  0  0  0  0  0  0  0  0  0  0  0
  -37.3647  154.1315    7.2345 H   0  0  0  0  0  0  0  0  0  0  0  0
  -33.1410  155.1990    4.1320 H   0  0  0  0  0  0  0  0  0  0  0  0
  -33.6953  157.8787    4.0675 H   0  0  0  0  0  0  0  0  0  0  0  0
  -35.3332  159.5894    4.9077 H   0  0  0  0  0  0  0  0  0  0  0  0
  -37.2544  158.8979    6.3385 H   0  0  0  0  0  0  0  0  0  0  0  0
  -37.5814  156.4914    6.9634 H   0  0  0  0  0  0  0  0  0  0  0  0
  -38.3030  152.7462    5.0555 H   0  0  0  0  0  0  0  0  0  0  0  0
  -39.6128  151.1056    3.7344 H   0  0  0  0  0  0  0  0  0  0  0  0
  -39.2320  148.6650    4.0527 H   0  0  0  0  0  0  0  0  0  0  0  0
  -37.5560  147.8817    5.7067 H   0  0  0  0  0  0  0  0  0  0  0  0
  1  2  1  0
  2  3  1  0
  2  4  1  0
  4  5  2  0
  5  6  1  0
  6  7  2  0
  7  8  1  0
  8  9  2  0
  9 10  1  0
 10 11  2  0
 10 12  1  0
 12 13  1  0
 13 14  2  0
 14 15  1  0
 15 16  2  0
 16 17  1  0
 17 18  2  0
  7 19  1  0
 19 20  2  0
 20 21  1  0
 21 22  2  0
 22 23  1  0
 23 24  2  0
 24  4  1  0
 18  9  1  0
 24 19  1  0
 18 13  1  0
  1 25  1  0
  1 26  1  0
  1 27  1  0
  3 28  1  0
  3 29  1  0
  3 30  1  0
  5 31  1  0
  6 32  1  0
  8 33  1  0
 12 34  1  0
 14 35  1  0
 15 36  1  0
 16 37  1  0
 17 38  1  0
 20 39  1  0
 21 40  1  0
 22 41  1  0
 23 42  1  0
M  END
>  <meeko>  (7) 
{"is_sidechain": false}

>  <vina_affinity_kcal_mol>  (7) 
-7.871

>  <pose_rank>  (7) 
7

$$$$

     RDKit          3D

 42 45  0  0  0  0  0  0  0  0999 V2000
  -37.8740  149.2590    3.3160 C   0  0  0  0  0  0  0  0  0  0  0  0
  -37.3070  148.1780    2.5090 N   0  0  0  0  0  0  0  0  0  0  0  0
  -37.0910  146.9260    3.2420 C   0  0  0  0  0  0  0  0  0  0  0  0
  -37.9990  147.9210    1.2910 C   0  0  0  0  0  0  0  0  0  0  0  0
  -39.3900  147.7420    1.2730 C   0  0  0  0  0  0  0  0  0  0  0  0
  -40.0600  147.4550    0.0870 C   0  0  0  0  0  0  0  0  0  0  0  0
  -39.3540  147.3240   -1.1130 C   0  0  0  0  0  0  0  0  0  0  0  0
  -40.1270  147.0520   -2.3370 C   0  0  0  0  0  0  0  0  0  0  0  0
  -40.5440  145.8470   -2.7510 C   0  0  0  0  0  0  0  0  0  0  0  0
  -40.3280  144.5110   -2.0800 C   0  0  0  0  0  0  0  0  0  0  0  0
  -39.7630  144.2640   -1.0340 O   0  0  0  0  0  0  0  0  0  0  0  0
  -40.9350  143.5890   -2.9220 N   0  0  0  0  0  0  0  0  0  0  0  0
  -41.5020  144.2070   -4.0330 C   0  0  0  0  0  0  0  0  0  0  0  0
  -42.1810  143.5930   -5.0640 C   0  0  0  0  0  0  0  0  0  0  0  0
  -42.6710  144.4110   -6.0850 C   0  0  0  0  0  0  0  0  0  0  0  0
  -42.4730  145.8040   -6.0480 C   0  0  0  0  0  0  0  0  0  0  0  0
  -41.7800  146.4050   -4.9910 C   0  0  0  0  0  0  0  0  0  0  0  0
  -41.2970  145.5890   -3.9840 C   0  0  0  0  0  0  0  0  0  0  0  0
  -37.9450  147.4940   -1.1380 C   0  0  0  0  0  0  0  0  0  0  0  0
  -37.1790  147.3720   -2.3240 C   0  0  0  0  0  0  0  0  0  0  0  0
  -35.7960  147.5510   -2.3330 C   0  0  0  0  0  0  0  0  0  0  0  0
  -35.1370  147.8620   -1.1550 C   0  0  0  0  0  0  0  0  0  0  0  0
  -35.8650  147.9830    0.0300 C   0  0  0  0  0  0  0  0  0  0  0  0
  -37.2660  147.7990    0.0740 C   0  0  0  0  0  0  0  0  0  0  0  0
  -37.7504  149.0234    4.3833 H   0  0  0  0  0  0  0  0  0  0  0  0
  -37.3535  150.2003    3.0856 H   0  0  0  0  0  0  0  0  0  0  0  0
  -38.9443  149.3659    3.0856 H   0  0  0  0  0  0  0  0  0  0  0  0
  -37.1251  147.1237    4.3235 H   0  0  0  0  0  0  0  0  0  0  0  0
  -37.8780  146.2050    2.9761 H   0  0  0  0  0  0  0  0  0  0  0  0
  -36.1079  146.5104    2.9761 H   0  0  0  0  0  0  0  0  0  0  0  0
  -39.9598  147.8297    2.2098 H   0  0  0  0  0  0  0  0  0  0  0  0
  -41.1529  147.3303    0.0938 H   0  0  0  0  0  0  0  0  0  0  0  0
  -40.3853  147.9151   -2.9681 H   0  0  0  0  0  0  0  0  0  0  0  0
  -40.9460  142.6020   -2.7230 H   0  0  0  0  0  0  0  0  0  0  0  0
  -42.3308  142.5034   -5.0819 H   0  0  0  0  0  0  0  0  0  0  0  0
  -43.2176  143.9615   -6.9271 H   0  0  0  0  0  0  0  0  0  0  0  0
  -42.8687  146.4295   -6.8618 H   0  0  0  0  0  0  0  0  0  0  0  0
  -41.6241  147.4935   -4.9619 H   0  0  0  0  0  0  0  0  0  0  0  0
  -37.6911  147.1286   -3.2666 H   0  0  0  0  0  0  0  0  0  0  0  0
  -35.2312  147.4457   -3.2710 H   0  0  0  0  0  0  0  0  0  0  0  0
  -34.0474  148.0126   -1.1533 H   0  0  0  0  0  0  0  0  0  0  0  0
  -35.3312  148.2295    0.9597 H   0  0  0  0  0  0  0  0  0  0  0  0
  1  2  1  0
  2  3  1  0
  2  4  1  0
  4  5  2  0
  5  6  1  0
  6  7  2  0
  7  8  1  0
  8  9  2  0
  9 10  1  0
 10 11  2  0
 10 12  1  0
 12 13  1  0
 13 14  2  0
 14 15  1  0
 15 16  2  0
 16 17  1  0
 17 18  2  0
  7 19  1  0
 19 20  2  0
 20 21  1  0
 21 22  2  0
 22 23  1  0
 23 24  2  0
 24  4  1  0
 18  9  1  0
 24 19  1  0
 18 13  1  0
  1 25  1  0
  1 26  1  0
  1 27  1  0
  3 28  1  0
  3 29  1  0
  3 30  1  0
  5 31  1  0
  6 32  1  0
  8 33  1  0
 12 34  1  0
 14 35  1  0
 15 36  1  0
 16 37  1  0
 17 38  1  0
 20 39  1  0
 21 40  1  0
 22 41  1  0
 23 42  1  0
M  END
>  <meeko>  (8) 
{"is_sidechain": false}

>  <vina_affinity_kcal_mol>  (8) 
-7.866

>  <pose_rank>  (8) 
8

$$$$

     RDKit          3D

 42 45  0  0  0  0  0  0  0  0999 V2000
  -40.3890  160.2200   -1.1310 C   0  0  0  0  0  0  0  0  0  0  0  0
  -39.0930  160.1160   -1.8020 N   0  0  0  0  0  0  0  0  0  0  0  0
  -38.6350  158.7400   -2.0240 C   0  0  0  0  0  0  0  0  0  0  0  0
  -38.9870  160.8690   -3.0060 C   0  0  0  0  0  0  0  0  0  0  0  0
  -39.0030  160.2380   -4.2580 C   0  0  0  0  0  0  0  0  0  0  0  0
  -38.8610  160.9720   -5.4330 C   0  0  0  0  0  0  0  0  0  0  0  0
  -38.6850  162.3590   -5.3860 C   0  0  0  0  0  0  0  0  0  0  0  0
  -38.5750  163.0800   -6.6650 C   0  0  0  0  0  0  0  0  0  0  0  0
  -37.6690  162.8420   -7.6250 C   0  0  0  0  0  0  0  0  0  0  0  0
  -36.5720  161.8040   -7.6270 C   0  0  0  0  0  0  0  0  0  0  0  0
  -36.3060  160.9720   -6.7840 O   0  0  0  0  0  0  0  0  0  0  0  0
  -35.9100  161.9910   -8.8330 N   0  0  0  0  0  0  0  0  0  0  0  0
  -36.4780  163.0230   -9.5730 C   0  0  0  0  0  0  0  0  0  0  0  0
  -36.0720  163.4720  -10.8130 C   0  0  0  0  0  0  0  0  0  0  0  0
  -36.7900  164.5280  -11.3790 C   0  0  0  0  0  0  0  0  0  0  0  0
  -37.8820  165.1000  -10.7000 C   0  0  0  0  0  0  0  0  0  0  0  0
  -38.2760  164.6280   -9.4420 C   0  0  0  0  0  0  0  0  0  0  0  0
  -37.5590  163.5820   -8.8870 C   0  0  0  0  0  0  0  0  0  0  0  0
  -38.6600  163.0360   -4.1390 C   0  0  0  0  0  0  0  0  0  0  0  0
  -38.4830  164.4380   -4.0310 C   0  0  0  0  0  0  0  0  0  0  0  0
  -38.4700  165.0900   -2.7980 C   0  0  0  0  0  0  0  0  0  0  0  0
  -38.6360  164.3580   -1.6340 C   0  0  0  0  0  0  0  0  0  0  0  0
  -38.8060  162.9750   -1.7080 C   0  0  0  0  0  0  0  0  0  0  0  0
  -38.8160  162.2840   -2.9420 C   0  0  0  0  0  0  0  0  0  0  0  0
  -40.2397  160.2080   -0.0412 H   0  0  0  0  0  0  0  0  0  0  0  0
  -40.8790  161.1604   -1.4236 H   0  0  0  0  0  0  0  0  0  0  0  0
  -41.0227  159.3698   -1.4236 H   0  0  0  0  0  0  0  0  0  0  0  0
  -38.4710  158.2472   -1.0543 H   0  0  0  0  0  0  0  0  0  0  0  0
  -39.3975  158.1869   -2.5921 H   0  0  0  0  0  0  0  0  0  0  0  0
  -37.6931  158.7542   -2.5921 H   0  0  0  0  0  0  0  0  0  0  0  0
  -39.1296  159.1467   -4.3130 H   0  0  0  0  0  0  0  0  0  0  0  0
  -38.8874  160.4575   -6.4049 H   0  0  0  0  0  0  0  0  0  0  0  0
  -39.3006  163.8858   -6.8498 H   0  0  0  0  0  0  0  0  0  0  0  0
  -35.1200  161.4290   -9.1070 H   0  0  0  0  0  0  0  0  0  0  0  0
  -35.2173  163.0167  -11.3347 H   0  0  0  0  0  0  0  0  0  0  0  0
  -36.4988  164.9167  -12.3660 H   0  0  0  0  0  0  0  0  0  0  0  0
  -38.4342  165.9303  -11.1645 H   0  0  0  0  0  0  0  0  0  0  0  0
  -39.1294  165.0748   -8.9109 H   0  0  0  0  0  0  0  0  0  0  0  0
  -38.3518  165.0306   -4.9484 H   0  0  0  0  0  0  0  0  0  0  0  0
  -38.3286  166.1798   -2.7503 H   0  0  0  0  0  0  0  0  0  0  0  0
  -38.6338  164.8638   -0.6572 H   0  0  0  0  0  0  0  0  0  0  0  0
  -38.9364  162.4040   -0.7769 H   0  0  0  0  0  0  0  0  0  0  0  0
  1  2  1  0
  2  3  1  0
  2  4  1  0
  4  5  2  0
  5  6  1  0
  6  7  2  0
  7  8  1  0
  8  9  2  0
  9 10  1  0
 10 11  2  0
 10 12  1  0
 12 13  1  0
 13 14  2  0
 14 15  1  0
 15 16  2  0
 16 17  1  0
 17 18  2  0
  7 19  1  0
 19 20  2  0
 20 21  1  0
 21 22  2  0
 22 23  1  0
 23 24  2  0
 24  4  1  0
 18  9  1  0
 24 19  1  0
 18 13  1  0
  1 25  1  0
  1 26  1  0
  1 27  1  0
  3 28  1  0
  3 29  1  0
  3 30  1  0
  5 31  1  0
  6 32  1  0
  8 33  1  0
 12 34  1  0
 14 35  1  0
 15 36  1  0
 16 37  1  0
 17 38  1  0
 20 39  1  0
 21 40  1  0
 22 41  1  0
 23 42  1  0
M  END
>  <meeko>  (9) 
{"is_sidechain": false}

>  <vina_affinity_kcal_mol>  (9) 
-7.764

>  <pose_rank>  (9) 
9

$$$$

     RDKit          3D

 42 45  0  0  0  0  0  0  0  0999 V2000
  -39.3660  145.6260    4.8790 C   0  0  0  0  0  0  0  0  0  0  0  0
  -40.2470  146.7680    5.1240 N   0  0  0  0  0  0  0  0  0  0  0  0
  -41.2850  146.5260    6.1310 C   0  0  0  0  0  0  0  0  0  0  0  0
  -39.5700  147.9900    5.4000 C   0  0  0  0  0  0  0  0  0  0  0  0
  -38.9060  148.1910    6.6180 C   0  0  0  0  0  0  0  0  0  0  0  0
  -38.2760  149.3990    6.9020 C   0  0  0  0  0  0  0  0  0  0  0  0
  -38.3060  150.4490    5.9770 C   0  0  0  0  0  0  0  0  0  0  0  0
  -37.5930  151.6900    6.3240 C   0  0  0  0  0  0  0  0  0  0  0  0
  -36.2950  151.9390    6.0950 C   0  0  0  0  0  0  0  0  0  0  0  0
  -35.2790  151.0340    5.4430 C   0  0  0  0  0  0  0  0  0  0  0  0
  -35.4310  149.9220    4.9790 O   0  0  0  0  0  0  0  0  0  0  0  0
  -34.0920  151.7550    5.4710 N   0  0  0  0  0  0  0  0  0  0  0  0
  -34.2660  153.0020    6.0630 C   0  0  0  0  0  0  0  0  0  0  0  0
  -33.3010  153.9690    6.2530 C   0  0  0  0  0  0  0  0  0  0  0  0
  -33.6970  155.1560    6.8730 C   0  0  0  0  0  0  0  0  0  0  0  0
  -35.0310  155.3440    7.2820 C   0  0  0  0  0  0  0  0  0  0  0  0
  -35.9930  154.3480    7.0790 C   0  0  0  0  0  0  0  0  0  0  0  0
  -35.5940  153.1740    6.4650 C   0  0  0  0  0  0  0  0  0  0  0  0
  -38.9700  150.2880    4.7330 C   0  0  0  0  0  0  0  0  0  0  0  0
  -39.0340  151.3170    3.7600 C   0  0  0  0  0  0  0  0  0  0  0  0
  -39.6820  151.1410    2.5380 C   0  0  0  0  0  0  0  0  0  0  0  0
  -40.2860  149.9270    2.2510 C   0  0  0  0  0  0  0  0  0  0  0  0
  -40.2450  148.8980    3.1920 C   0  0  0  0  0  0  0  0  0  0  0  0
  -39.6030  149.0480    4.4430 C   0  0  0  0  0  0  0  0  0  0  0  0
  -39.0391  145.2023    5.8400 H   0  0  0  0  0  0  0  0  0  0  0  0
  -39.9094  144.8599    4.3064 H   0  0  0  0  0  0  0  0  0  0  0  0
  -38.4871  145.9571    4.3064 H   0  0  0  0  0  0  0  0  0  0  0  0
  -40.8509  146.6272    7.1367 H   0  0  0  0  0  0  0  0  0  0  0  0
  -42.0953  147.2593    6.0059 H   0  0  0  0  0  0  0  0  0  0  0  0
  -41.6875  145.5099    6.0059 H   0  0  0  0  0  0  0  0  0  0  0  0
  -38.8825  147.3807    7.3615 H   0  0  0  0  0  0  0  0  0  0  0  0
  -37.7510  149.5295    7.8598 H   0  0  0  0  0  0  0  0  0  0  0  0
  -38.1766  152.4830    6.8144 H   0  0  0  0  0  0  0  0  0  0  0  0
  -33.2300  151.3900    5.0980 H   0  0  0  0  0  0  0  0  0  0  0  0
  -32.2616  153.8116    5.9293 H   0  0  0  0  0  0  0  0  0  0  0  0
  -32.9584  155.9531    7.0437 H   0  0  0  0  0  0  0  0  0  0  0  0
  -35.3213  156.2871    7.7680 H   0  0  0  0  0  0  0  0  0  0  0  0
  -37.0355  154.4942    7.3981 H   0  0  0  0  0  0  0  0  0  0  0  0
  -38.5575  152.2847    3.9758 H   0  0  0  0  0  0  0  0  0  0  0  0
  -39.7137  151.9612    1.8057 H   0  0  0  0  0  0  0  0  0  0  0  0
  -40.7945  149.7759    1.2873 H   0  0  0  0  0  0  0  0  0  0  0  0
  -40.7277  147.9389    2.9531 H   0  0  0  0  0  0  0  0  0  0  0  0
  1  2  1  0
  2  3  1  0
  2  4  1  0
  4  5  2  0
  5  6  1  0
  6  7  2  0
  7  8  1  0
  8  9  2  0
  9 10  1  0
 10 11  2  0
 10 12  1  0
 12 13  1  0
 13 14  2  0
 14 15  1  0
 15 16  2  0
 16 17  1  0
 17 18  2  0
  7 19  1  0
 19 20  2  0
 20 21  1  0
 21 22  2  0
 22 23  1  0
 23 24  2  0
 24  4  1  0
 18  9  1  0
 24 19  1  0
 18 13  1  0
  1 25  1  0
  1 26  1  0
  1 27  1  0
  3 28  1  0
  3 29  1  0
  3 30  1  0
  5 31  1  0
  6 32  1  0
  8 33  1  0
 12 34  1  0
 14 35  1  0
 15 36  1  0
 16 37  1  0
 17 38  1  0
 20 39  1  0
 21 40  1  0
 22 41  1  0
 23 42  1  0
M  END
>  <meeko>  (10) 
{"is_sidechain": false}

>  <vina_affinity_kcal_mol>  (10) 
-7.367

>  <pose_rank>  (10) 
10

$$$$
