
     RDKit          3D

 48 50  0  0  0  0  0  0  0  0999 V2000
  -38.1960  165.0890   -6.9870 C   0  0  0  0  0  0  0  0  0  0  0  0
  -38.5430  164.0200   -6.0930 N   0  0  0  0  0  0  0  0  0  0  0  0
  -38.3680  164.1090   -4.7280 C   0  0  0  0  0  0  0  0  0  0  0  0
  -37.9990  165.1230   -4.1450 O   0  0  0  0  0  0  0  0  0  0  0  0
  -38.6560  162.8390   -3.9850 C   0  0  0  0  0  0  0  0  0  0  0  0
  -39.3450  162.8860   -2.7840 C   0  0  0  0  0  0  0  0  0  0  0  0
  -39.5960  161.6810   -2.1410 C   0  0  0  0  0  0  0  0  0  0  0  0
  -40.2500  161.7440   -0.9310 O   0  0  0  0  0  0  0  0  0  0  0  0
  -39.9320  160.7940    0.0110 C   0  0  0  0  0  0  0  0  0  0  0  0
  -38.6140  160.4490    0.3240 C   0  0  0  0  0  0  0  0  0  0  0  0
  -38.3510  159.4490    1.2690 C   0  0  0  0  0  0  0  0  0  0  0  0
  -39.4050  158.7820    1.8950 C   0  0  0  0  0  0  0  0  0  0  0  0
  -39.2450  157.7560    2.8530 N   0  0  0  0  0  0  0  0  0  0  0  0
  -38.0750  157.1030    3.2030 C   0  0  0  0  0  0  0  0  0  0  0  0
  -36.9650  157.3870    2.7740 O   0  0  0  0  0  0  0  0  0  0  0  0
  -38.3440  156.0840    4.1050 N   0  0  0  0  0  0  0  0  0  0  0  0
  -37.4150  155.2510    4.7620 C   0  0  0  0  0  0  0  0  0  0  0  0
  -37.5050  153.8620    4.8080 C   0  0  0  0  0  0  0  0  0  0  0  0
  -36.5330  153.1110    5.4750 C   0  0  0  0  0  0  0  0  0  0  0  0
  -35.4550  153.7400    6.1010 C   0  0  0  0  0  0  0  0  0  0  0  0
  -34.2990  152.7390    6.9000 Cl  0  0  0  0  0  0  0  0  0  0  0  0
  -35.3350  155.1320    6.0640 C   0  0  0  0  0  0  0  0  0  0  0  0
  -34.1840  155.8400    6.7230 C   0  0  0  0  0  0  0  0  0  0  0  0
  -34.2530  157.1940    6.6080 F   0  0  0  0  0  0  0  0  0  0  0  0
  -32.9720  155.4690    6.2280 F   0  0  0  0  0  0  0  0  0  0  0  0
  -34.1130  155.5970    8.0650 F   0  0  0  0  0  0  0  0  0  0  0  0
  -36.3250  155.8750    5.3870 C   0  0  0  0  0  0  0  0  0  0  0  0
  -40.7180  159.1220    1.5400 C   0  0  0  0  0  0  0  0  0  0  0  0
  -41.7440  158.4750    2.1190 F   0  0  0  0  0  0  0  0  0  0  0  0
  -40.9910  160.1140    0.6050 C   0  0  0  0  0  0  0  0  0  0  0  0
  -39.1270  160.4870   -2.6840 C   0  0  0  0  0  0  0  0  0  0  0  0
  -38.4460  160.5420   -3.8880 C   0  0  0  0  0  0  0  0  0  0  0  0
  -38.2010  161.6870   -4.5600 N   0  0  0  0  0  0  0  0  0  0  0  0
  -37.9081  165.9760   -6.4036 H   0  0  0  0  0  0  0  0  0  0  0  0
  -37.3528  164.7776   -7.6211 H   0  0  0  0  0  0  0  0  0  0  0  0
  -39.0613  165.3322   -7.6211 H   0  0  0  0  0  0  0  0  0  0  0  0
  -38.7530  163.0920   -6.4540 H   0  0  0  0  0  0  0  0  0  0  0  0
  -39.6807  163.8420   -2.3558 H   0  0  0  0  0  0  0  0  0  0  0  0
  -37.7798  160.9650   -0.1739 H   0  0  0  0  0  0  0  0  0  0  0  0
  -37.3116  159.1889    1.5182 H   0  0  0  0  0  0  0  0  0  0  0  0
  -40.0550  157.5970    3.4390 H   0  0  0  0  0  0  0  0  0  0  0  0
  -39.3170  155.8340    4.2040 H   0  0  0  0  0  0  0  0  0  0  0  0
  -38.3467  153.3525    4.3161 H   0  0  0  0  0  0  0  0  0  0  0  0
  -36.6181  152.0148    5.5070 H   0  0  0  0  0  0  0  0  0  0  0  0
  -36.2401  156.9710    5.3482 H   0  0  0  0  0  0  0  0  0  0  0  0
  -42.0299  160.3581    0.3384 H   0  0  0  0  0  0  0  0  0  0  0  0
  -39.2930  159.5282   -2.1710 H   0  0  0  0  0  0  0  0  0  0  0  0
  -38.0836  159.5985   -4.3221 H   0  0  0  0  0  0  0  0  0  0  0  0
  1  2  1  0
  2  3  1  0
  3  4  2  0
  3  5  1  0
  5  6  2  0
  6  7  1  0
  7  8  1  0
  8  9  1  0
  9 10  1  0
 10 11  2  0
 11 12  1  0
 12 13  1  0
 13 14  1  0
 14 15  2  0
 14 16  1  0
 16 17  1  0
 17 18  1  0
 18 19  2  0
 19 20  1  0
 20 21  1  0
 20 22  2  0
 22 23  1  0
 23 24  1  0
 23 25  1  0
 23 26  1  0
 22 27  1  0
 12 28  2  0
 28 29  1  0
 28 30  1  0
  7 31  2  0
 31 32  1  0
 32 33  2  0
 33  5  1  0
 30  9  2  0
 27 17  2  0
  1 34  1  0
  1 35  1  0
  1 36  1  0
  2 37  1  0
  6 38  1  0
 10 39  1  0
 11 40  1  0
 13 41  1  0
 16 42  1  0
 18 43  1  0
 19 44  1  0
 27 45  1  0
 30 46  1  0
 31 47  1  0
 32 48  1  0
M  END
>  <meeko>  (1) 
{"is_sidechain": false}

>  <vina_affinity_kcal_mol>  (1) 
-11.363

>  <pose_rank>  (1) 
1

$$$$

     RDKit          3D

 48 50  0  0  0  0  0  0  0  0999 V2000
  -37.8620  165.8360   -7.7130 C   0  0  0  0  0  0  0  0  0  0  0  0
  -38.1210  165.3460   -6.3880 N   0  0  0  0  0  0  0  0  0  0  0  0
  -37.7420  164.0850   -5.9760 C   0  0  0  0  0  0  0  0  0  0  0  0
  -37.0740  163.3120   -6.6530 O   0  0  0  0  0  0  0  0  0  0  0  0
  -38.2270  163.7120   -4.6080 C   0  0  0  0  0  0  0  0  0  0  0  0
  -38.8620  162.4970   -4.4120 C   0  0  0  0  0  0  0  0  0  0  0  0
  -39.2840  162.1940   -3.1230 C   0  0  0  0  0  0  0  0  0  0  0  0
  -39.9450  161.0000   -2.9470 O   0  0  0  0  0  0  0  0  0  0  0  0
  -39.7260  160.3210   -1.7720 C   0  0  0  0  0  0  0  0  0  0  0  0
  -38.6580  159.4350   -1.5960 C   0  0  0  0  0  0  0  0  0  0  0  0
  -38.5050  158.7450   -0.3870 C   0  0  0  0  0  0  0  0  0  0  0  0
  -39.4250  158.9270    0.6450 C   0  0  0  0  0  0  0  0  0  0  0  0
  -39.3640  158.2730    1.8960 N   0  0  0  0  0  0  0  0  0  0  0  0
  -38.2330  157.8350    2.5640 C   0  0  0  0  0  0  0  0  0  0  0  0
  -37.0840  158.0300    2.1900 O   0  0  0  0  0  0  0  0  0  0  0  0
  -38.5900  157.1450    3.7140 N   0  0  0  0  0  0  0  0  0  0  0  0
  -37.7310  156.6220    4.7030 C   0  0  0  0  0  0  0  0  0  0  0  0
  -37.0070  157.4020    5.6010 C   0  0  0  0  0  0  0  0  0  0  0  0
  -36.1840  156.8010    6.5570 C   0  0  0  0  0  0  0  0  0  0  0  0
  -36.0790  155.4100    6.6300 C   0  0  0  0  0  0  0  0  0  0  0  0
  -35.0420  154.7490    7.8410 Cl  0  0  0  0  0  0  0  0  0  0  0  0
  -36.7990  154.6030    5.7460 C   0  0  0  0  0  0  0  0  0  0  0  0
  -36.7110  153.1030    5.8000 C   0  0  0  0  0  0  0  0  0  0  0  0
  -37.5910  152.4850    4.9660 F   0  0  0  0  0  0  0  0  0  0  0  0
  -36.9350  152.5970    7.0440 F   0  0  0  0  0  0  0  0  0  0  0  0
  -35.4820  152.6320    5.4380 F   0  0  0  0  0  0  0  0  0  0  0  0
  -37.6250  155.2260    4.7860 C   0  0  0  0  0  0  0  0  0  0  0  0
  -40.5070  159.7940    0.4330 C   0  0  0  0  0  0  0  0  0  0  0  0
  -41.4130  159.9650    1.4100 F   0  0  0  0  0  0  0  0  0  0  0  0
  -40.6680  160.4860   -0.7620 C   0  0  0  0  0  0  0  0  0  0  0  0
  -39.0990  163.1130   -2.0930 C   0  0  0  0  0  0  0  0  0  0  0  0
  -38.4550  164.3020   -2.3880 C   0  0  0  0  0  0  0  0  0  0  0  0
  -38.0070  164.6270   -3.6200 N   0  0  0  0  0  0  0  0  0  0  0  0
  -37.3488  166.8070   -7.6511 H   0  0  0  0  0  0  0  0  0  0  0  0
  -37.2254  165.1185   -8.2514 H   0  0  0  0  0  0  0  0  0  0  0  0
  -38.8135  165.9579   -8.2514 H   0  0  0  0  0  0  0  0  0  0  0  0
  -38.7580  165.8420   -5.7690 H   0  0  0  0  0  0  0  0  0  0  0  0
  -39.0262  161.7980   -5.2453 H   0  0  0  0  0  0  0  0  0  0  0  0
  -37.9353  159.2796   -2.4106 H   0  0  0  0  0  0  0  0  0  0  0  0
  -37.6570  158.0577   -0.2511 H   0  0  0  0  0  0  0  0  0  0  0  0
  -40.2360  158.2640    2.4100 H   0  0  0  0  0  0  0  0  0  0  0  0
  -39.5620  156.8840    3.7820 H   0  0  0  0  0  0  0  0  0  0  0  0
  -37.0835  158.4985    5.5575 H   0  0  0  0  0  0  0  0  0  0  0  0
  -35.6140  157.4285    7.2580 H   0  0  0  0  0  0  0  0  0  0  0  0
  -38.1995  154.6015    4.0860 H   0  0  0  0  0  0  0  0  0  0  0  0
  -41.5290  161.1551   -0.9069 H   0  0  0  0  0  0  0  0  0  0  0  0
  -39.4546  162.8999   -1.0741 H   0  0  0  0  0  0  0  0  0  0  0  0
  -38.2991  165.0235   -1.5725 H   0  0  0  0  0  0  0  0  0  0  0  0
  1  2  1  0
  2  3  1  0
  3  4  2  0
  3  5  1  0
  5  6  2  0
  6  7  1  0
  7  8  1  0
  8  9  1  0
  9 10  1  0
 10 11  2  0
 11 12  1  0
 12 13  1  0
 13 14  1  0
 14 15  2  0
 14 16  1  0
 16 17  1  0
 17 18  1  0
 18 19  2  0
 19 20  1  0
 20 21  1  0
 20 22  2  0
 22 23  1  0
 23 24  1  0
 23 25  1  0
 23 26  1  0
 22 27  1  0
 12 28  2  0
 28 29  1  0
 28 30  1  0
  7 31  2  0
 31 32  1  0
 32 33  2  0
 33  5  1  0
 30  9  2  0
 27 17  2  0
  1 34  1  0
  1 35  1  0
  1 36  1  0
  2 37  1  0
  6 38  1  0
 10 39  1  0
 11 40  1  0
 13 41  1  0
 16 42  1  0
 18 43  1  0
 19 44  1  0
 27 45  1  0
 30 46  1  0
 31 47  1  0
 32 48  1  0
M  END
>  <meeko>  (2) 
{"is_sidechain": false}

>  <vina_affinity_kcal_mol>  (2) 
-11.022

>  <pose_rank>  (2) 
2

$$$$

     RDKit          3D

 48 50  0  0  0  0  0  0  0  0999 V2000
  -37.6220  162.1270   -9.4410 C   0  0  0  0  0  0  0  0  0  0  0  0
  -37.9080  162.6820   -8.1470 N   0  0  0  0  0  0  0  0  0  0  0  0
  -37.1110  162.4460   -7.0470 C   0  0  0  0  0  0  0  0  0  0  0  0
  -36.0490  161.8350   -7.0830 O   0  0  0  0  0  0  0  0  0  0  0  0
  -37.6550  162.9970   -5.7630 C   0  0  0  0  0  0  0  0  0  0  0  0
  -38.5700  162.2570   -5.0310 C   0  0  0  0  0  0  0  0  0  0  0  0
  -39.0360  162.8080   -3.8440 C   0  0  0  0  0  0  0  0  0  0  0  0
  -39.9710  162.0800   -3.1440 O   0  0  0  0  0  0  0  0  0  0  0  0
  -39.5090  161.2050   -2.1880 C   0  0  0  0  0  0  0  0  0  0  0  0
  -39.2140  161.6000   -0.8800 C   0  0  0  0  0  0  0  0  0  0  0  0
  -38.7130  160.6710    0.0420 C   0  0  0  0  0  0  0  0  0  0  0  0
  -38.4930  159.3490   -0.3440 C   0  0  0  0  0  0  0  0  0  0  0  0
  -37.9840  158.3420    0.5050 N   0  0  0  0  0  0  0  0  0  0  0  0
  -37.9990  158.3190    1.8900 C   0  0  0  0  0  0  0  0  0  0  0  0
  -38.5440  159.1590    2.5940 O   0  0  0  0  0  0  0  0  0  0  0  0
  -37.3090  157.2110    2.3600 N   0  0  0  0  0  0  0  0  0  0  0  0
  -37.1740  156.7890    3.6990 C   0  0  0  0  0  0  0  0  0  0  0  0
  -38.1600  156.1050    4.4060 C   0  0  0  0  0  0  0  0  0  0  0  0
  -37.9400  155.7150    5.7300 C   0  0  0  0  0  0  0  0  0  0  0  0
  -36.7280  156.0000    6.3620 C   0  0  0  0  0  0  0  0  0  0  0  0
  -36.5380  155.4820    7.9970 Cl  0  0  0  0  0  0  0  0  0  0  0  0
  -35.7190  156.6790    5.6750 C   0  0  0  0  0  0  0  0  0  0  0  0
  -34.4010  156.9980    6.3250 C   0  0  0  0  0  0  0  0  0  0  0  0
  -34.5250  157.7830    7.4290 F   0  0  0  0  0  0  0  0  0  0  0  0
  -33.5320  157.6330    5.4910 F   0  0  0  0  0  0  0  0  0  0  0  0
  -33.7380  155.8820    6.7510 F   0  0  0  0  0  0  0  0  0  0  0  0
  -35.9570  157.0660    4.3390 C   0  0  0  0  0  0  0  0  0  0  0  0
  -38.7640  158.9850   -1.6710 C   0  0  0  0  0  0  0  0  0  0  0  0
  -38.5390  157.7210   -2.0650 F   0  0  0  0  0  0  0  0  0  0  0  0
  -39.2640  159.8980   -2.5950 C   0  0  0  0  0  0  0  0  0  0  0  0
  -38.6140  164.0740   -3.4470 C   0  0  0  0  0  0  0  0  0  0  0  0
  -37.6990  164.7370   -4.2470 C   0  0  0  0  0  0  0  0  0  0  0  0
  -37.2010  164.2300   -5.3950 N   0  0  0  0  0  0  0  0  0  0  0  0
  -37.1212  161.1551   -9.3205 H   0  0  0  0  0  0  0  0  0  0  0  0
  -38.5613  161.9891   -9.9966 H   0  0  0  0  0  0  0  0  0  0  0  0
  -36.9646  162.8119   -9.9966 H   0  0  0  0  0  0  0  0  0  0  0  0
  -38.8100  163.1130   -7.9590 H   0  0  0  0  0  0  0  0  0  0  0  0
  -38.9141  161.2711   -5.3767 H   0  0  0  0  0  0  0  0  0  0  0  0
  -39.3757  162.6439   -0.5732 H   0  0  0  0  0  0  0  0  0  0  0  0
  -38.4927  160.9854    1.0728 H   0  0  0  0  0  0  0  0  0  0  0  0
  -37.7170  157.4880    0.0330 H   0  0  0  0  0  0  0  0  0  0  0  0
  -36.7410  156.7290    1.6790 H   0  0  0  0  0  0  0  0  0  0  0  0
  -39.1181  155.8702    3.9192 H   0  0  0  0  0  0  0  0  0  0  0  0
  -38.7284  155.1790    6.2788 H   0  0  0  0  0  0  0  0  0  0  0  0
  -35.1688  157.5979    3.7859 H   0  0  0  0  0  0  0  0  0  0  0  0
  -39.4625  159.5901   -3.6322 H   0  0  0  0  0  0  0  0  0  0  0  0
  -38.9966  164.5343   -2.5241 H   0  0  0  0  0  0  0  0  0  0  0  0
  -37.3584  165.7335   -3.9293 H   0  0  0  0  0  0  0  0  0  0  0  0
  1  2  1  0
  2  3  1  0
  3  4  2  0
  3  5  1  0
  5  6  2  0
  6  7  1  0
  7  8  1  0
  8  9  1  0
  9 10  1  0
 10 11  2  0
 11 12  1  0
 12 13  1  0
 13 14  1  0
 14 15  2  0
 14 16  1  0
 16 17  1  0
 17 18  1  0
 18 19  2  0
 19 20  1  0
 20 21  1  0
 20 22  2  0
 22 23  1  0
 23 24  1  0
 23 25  1  0
 23 26  1  0
 22 27  1  0
 12 28  2  0
 28 29  1  0
 28 30  1  0
  7 31  2  0
 31 32  1  0
 32 33  2  0
 33  5  1  0
 30  9  2  0
 27 17  2  0
  1 34  1  0
  1 35  1  0
  1 36  1  0
  2 37  1  0
  6 38  1  0
 10 39  1  0
 11 40  1  0
 13 41  1  0
 16 42  1  0
 18 43  1  0
 19 44  1  0
 27 45  1  0
 30 46  1  0
 31 47  1  0
 32 48  1  0
M  END
>  <meeko>  (3) 
{"is_sidechain": false}

>  <vina_affinity_kcal_mol>  (3) 
-10.907

>  <pose_rank>  (3) 
3

$$$$

     RDKit          3D

 48 50  0  0  0  0  0  0  0  0999 V2000
  -33.6460  153.0220    5.9530 C   0  0  0  0  0  0  0  0  0  0  0  0
  -34.2650  154.2860    5.6610 N   0  0  0  0  0  0  0  0  0  0  0  0
  -35.5830  154.3930    5.2700 C   0  0  0  0  0  0  0  0  0  0  0  0
  -36.3680  153.4520    5.2290 O   0  0  0  0  0  0  0  0  0  0  0  0
  -35.9980  155.7780    4.8760 C   0  0  0  0  0  0  0  0  0  0  0  0
  -37.3080  156.0220    4.4970 C   0  0  0  0  0  0  0  0  0  0  0  0
  -37.6440  157.3240    4.1510 C   0  0  0  0  0  0  0  0  0  0  0  0
  -38.9390  157.5470    3.7420 O   0  0  0  0  0  0  0  0  0  0  0  0
  -39.1250  158.1430    2.5170 C   0  0  0  0  0  0  0  0  0  0  0  0
  -40.1480  159.0620    2.2690 C   0  0  0  0  0  0  0  0  0  0  0  0
  -40.3090  159.6110    0.9900 C   0  0  0  0  0  0  0  0  0  0  0  0
  -39.4570  159.2330   -0.0480 C   0  0  0  0  0  0  0  0  0  0  0  0
  -39.5420  159.7200   -1.3710 N   0  0  0  0  0  0  0  0  0  0  0  0
  -39.0820  160.9340   -1.8530 C   0  0  0  0  0  0  0  0  0  0  0  0
  -38.4460  161.7480   -1.1970 O   0  0  0  0  0  0  0  0  0  0  0  0
  -39.4470  161.0930   -3.1830 N   0  0  0  0  0  0  0  0  0  0  0  0
  -39.0950  162.1480   -4.0490 C   0  0  0  0  0  0  0  0  0  0  0  0
  -39.1490  163.4960   -3.7020 C   0  0  0  0  0  0  0  0  0  0  0  0
  -38.7730  164.4790   -4.6210 C   0  0  0  0  0  0  0  0  0  0  0  0
  -38.3320  164.1260   -5.8990 C   0  0  0  0  0  0  0  0  0  0  0  0
  -37.8850  165.4020   -6.9710 Cl  0  0  0  0  0  0  0  0  0  0  0  0
  -38.2610  162.7820   -6.2710 C   0  0  0  0  0  0  0  0  0  0  0  0
  -37.7880  162.3670   -7.6370 C   0  0  0  0  0  0  0  0  0  0  0  0
  -36.4850  162.6840   -7.8710 F   0  0  0  0  0  0  0  0  0  0  0  0
  -38.5110  162.9240   -8.6470 F   0  0  0  0  0  0  0  0  0  0  0  0
  -37.8700  161.0190   -7.8380 F   0  0  0  0  0  0  0  0  0  0  0  0
  -38.6460  161.8010   -5.3310 C   0  0  0  0  0  0  0  0  0  0  0  0
  -38.4600  158.2840    0.2180 C   0  0  0  0  0  0  0  0  0  0  0  0
  -37.6430  157.8930   -0.7760 F   0  0  0  0  0  0  0  0  0  0  0  0
  -38.2890  157.7330    1.4830 C   0  0  0  0  0  0  0  0  0  0  0  0
  -36.6720  158.3220    4.1540 C   0  0  0  0  0  0  0  0  0  0  0  0
  -35.3880  157.9800    4.5460 C   0  0  0  0  0  0  0  0  0  0  0  0
  -35.0240  156.7330    4.9130 N   0  0  0  0  0  0  0  0  0  0  0  0
  -33.5808  152.8888    7.0430 H   0  0  0  0  0  0  0  0  0  0  0  0
  -34.2484  152.2099    5.5198 H   0  0  0  0  0  0  0  0  0  0  0  0
  -32.6352  153.0000    5.5198 H   0  0  0  0  0  0  0  0  0  0  0  0
  -33.6990  155.1240    5.5510 H   0  0  0  0  0  0  0  0  0  0  0  0
  -38.0542  155.2142    4.4711 H   0  0  0  0  0  0  0  0  0  0  0  0
  -40.8295  159.3556    3.0810 H   0  0  0  0  0  0  0  0  0  0  0  0
  -41.1095  160.3421    0.8038 H   0  0  0  0  0  0  0  0  0  0  0  0
  -39.8420  159.0360   -2.0530 H   0  0  0  0  0  0  0  0  0  0  0  0
  -40.1400  160.4450   -3.5250 H   0  0  0  0  0  0  0  0  0  0  0  0
  -39.4899  163.7885   -2.6979 H   0  0  0  0  0  0  0  0  0  0  0  0
  -38.8246  165.5402   -4.3359 H   0  0  0  0  0  0  0  0  0  0  0  0
  -38.5923  160.7387   -5.6115 H   0  0  0  0  0  0  0  0  0  0  0  0
  -37.5042  156.9838    1.6638 H   0  0  0  0  0  0  0  0  0  0  0  0
  -36.9169  159.3515    3.8539 H   0  0  0  0  0  0  0  0  0  0  0  0
  -34.6218  158.7692    4.5589 H   0  0  0  0  0  0  0  0  0  0  0  0
  1  2  1  0
  2  3  1  0
  3  4  2  0
  3  5  1  0
  5  6  2  0
  6  7  1  0
  7  8  1  0
  8  9  1  0
  9 10  1  0
 10 11  2  0
 11 12  1  0
 12 13  1  0
 13 14  1  0
 14 15  2  0
 14 16  1  0
 16 17  1  0
 17 18  1  0
 18 19  2  0
 19 20  1  0
 20 21  1  0
 20 22  2  0
 22 23  1  0
 23 24  1  0
 23 25  1  0
 23 26  1  0
 22 27  1  0
 12 28  2  0
 28 29  1  0
 28 30  1  0
  7 31  2  0
 31 32  1  0
 32 33  2  0
 33  5  1  0
 30  9  2  0
 27 17  2  0
  1 34  1  0
  1 35  1  0
  1 36  1  0
  2 37  1  0
  6 38  1  0
 10 39  1  0
 11 40  1  0
 13 41  1  0
 16 42  1  0
 18 43  1  0
 19 44  1  0
 27 45  1  0
 30 46  1  0
 31 47  1  0
 32 48  1  0
M  END
>  <meeko>  (4) 
{"is_sidechain": false}

>  <vina_affinity_kcal_mol>  (4) 
-10.889

>  <pose_rank>  (4) 
4

$$$$

     RDKit          3D

 48 50  0  0  0  0  0  0  0  0999 V2000
  -33.2900  169.2160  -11.6840 C   0  0  0  0  0  0  0  0  0  0  0  0
  -33.7370  167.8570  -11.5530 N   0  0  0  0  0  0  0  0  0  0  0  0
  -35.0630  167.5270  -11.3640 C   0  0  0  0  0  0  0  0  0  0  0  0
  -35.9840  168.3360  -11.3890 O   0  0  0  0  0  0  0  0  0  0  0  0
  -35.3050  166.0700  -11.1100 C   0  0  0  0  0  0  0  0  0  0  0  0
  -36.5300  165.6520  -10.6190 C   0  0  0  0  0  0  0  0  0  0  0  0
  -36.7070  164.2910  -10.4090 C   0  0  0  0  0  0  0  0  0  0  0  0
  -37.9170  163.8910   -9.8870 O   0  0  0  0  0  0  0  0  0  0  0  0
  -37.9660  163.6110   -8.5420 C   0  0  0  0  0  0  0  0  0  0  0  0
  -37.8420  162.3140   -8.0340 C   0  0  0  0  0  0  0  0  0  0  0  0
  -37.9340  162.0840   -6.6550 C   0  0  0  0  0  0  0  0  0  0  0  0
  -38.1640  163.1470   -5.7810 C   0  0  0  0  0  0  0  0  0  0  0  0
  -38.2810  163.0190   -4.3790 N   0  0  0  0  0  0  0  0  0  0  0  0
  -38.7100  161.9120   -3.6660 C   0  0  0  0  0  0  0  0  0  0  0  0
  -38.9820  160.8270   -4.1630 O   0  0  0  0  0  0  0  0  0  0  0  0
  -38.7880  162.2110   -2.3140 N   0  0  0  0  0  0  0  0  0  0  0  0
  -39.0990  161.3310   -1.2570 C   0  0  0  0  0  0  0  0  0  0  0  0
  -38.1530  160.5880   -0.5540 C   0  0  0  0  0  0  0  0  0  0  0  0
  -38.5470  159.7450    0.4880 C   0  0  0  0  0  0  0  0  0  0  0  0
  -39.8930  159.6370    0.8450 C   0  0  0  0  0  0  0  0  0  0  0  0
  -40.2940  158.5740    2.1440 Cl  0  0  0  0  0  0  0  0  0  0  0  0
  -40.8620  160.3760    0.1620 C   0  0  0  0  0  0  0  0  0  0  0  0
  -42.3190  160.2860    0.5230 C   0  0  0  0  0  0  0  0  0  0  0  0
  -42.7540  161.3440    1.2600 F   0  0  0  0  0  0  0  0  0  0  0  0
  -42.6280  159.1650    1.2300 F   0  0  0  0  0  0  0  0  0  0  0  0
  -43.1340  160.2550   -0.5730 F   0  0  0  0  0  0  0  0  0  0  0  0
  -40.4480  161.2230   -0.8890 C   0  0  0  0  0  0  0  0  0  0  0  0
  -38.3180  164.4340   -6.3180 C   0  0  0  0  0  0  0  0  0  0  0  0
  -38.5600  165.4650   -5.4910 F   0  0  0  0  0  0  0  0  0  0  0  0
  -38.2270  164.6740   -7.6840 C   0  0  0  0  0  0  0  0  0  0  0  0
  -35.6610  163.4040  -10.6530 C   0  0  0  0  0  0  0  0  0  0  0  0
  -34.4720  163.9170  -11.1420 C   0  0  0  0  0  0  0  0  0  0  0  0
  -34.2650  165.2290  -11.3830 N   0  0  0  0  0  0  0  0  0  0  0  0
  -33.1464  169.6527  -10.6847 H   0  0  0  0  0  0  0  0  0  0  0  0
  -32.3375  169.2373  -12.2338 H   0  0  0  0  0  0  0  0  0  0  0  0
  -34.0439  169.7986  -12.2338 H   0  0  0  0  0  0  0  0  0  0  0  0
  -33.0670  167.1060  -11.4060 H   0  0  0  0  0  0  0  0  0  0  0  0
  -37.3335  166.3716  -10.4032 H   0  0  0  0  0  0  0  0  0  0  0  0
  -37.6716  161.4710   -8.7198 H   0  0  0  0  0  0  0  0  0  0  0  0
  -37.8246  161.0630   -6.2605 H   0  0  0  0  0  0  0  0  0  0  0  0
  -37.8640  163.7740   -3.8510 H   0  0  0  0  0  0  0  0  0  0  0  0
  -38.7380  163.1910   -2.0800 H   0  0  0  0  0  0  0  0  0  0  0  0
  -37.0888  160.6657   -0.8212 H   0  0  0  0  0  0  0  0  0  0  0  0
  -37.7903  159.1609    1.0323 H   0  0  0  0  0  0  0  0  0  0  0  0
  -41.2015  161.8123   -1.4322 H   0  0  0  0  0  0  0  0  0  0  0  0
  -38.3597  165.6912   -8.0812 H   0  0  0  0  0  0  0  0  0  0  0  0
  -35.7766  162.3268  -10.4625 H   0  0  0  0  0  0  0  0  0  0  0  0
  -33.6492  163.2159  -11.3457 H   0  0  0  0  0  0  0  0  0  0  0  0
  1  2  1  0
  2  3  1  0
  3  4  2  0
  3  5  1  0
  5  6  2  0
  6  7  1  0
  7  8  1  0
  8  9  1  0
  9 10  1  0
 10 11  2  0
 11 12  1  0
 12 13  1  0
 13 14  1  0
 14 15  2  0
 14 16  1  0
 16 17  1  0
 17 18  1  0
 18 19  2  0
 19 20  1  0
 20 21  1  0
 20 22  2  0
 22 23  1  0
 23 24  1  0
 23 25  1  0
 23 26  1  0
 22 27  1  0
 12 28  2  0
 28 29  1  0
 28 30  1  0
  7 31  2  0
 31 32  1  0
 32 33  2  0
 33  5  1  0
 30  9  2  0
 27 17  2  0
  1 34  1  0
  1 35  1  0
  1 36  1  0
  2 37  1  0
  6 38  1  0
 10 39  1  0
 11 40  1  0
 13 41  1  0
 16 42  1  0
 18 43  1  0
 19 44  1  0
 27 45  1  0
 30 46  1  0
 31 47  1  0
 32 48  1  0
M  END
>  <meeko>  (5) 
{"is_sidechain": false}

>  <vina_affinity_kcal_mol>  (5) 
-10.563

>  <pose_rank>  (5) 
5

$$$$

     RDKit          3D

 48 50  0  0  0  0  0  0  0  0999 V2000
  -34.9050  151.9680    5.4370 C   0  0  0  0  0  0  0  0  0  0  0  0
  -35.4110  153.2980    5.2370 N   0  0  0  0  0  0  0  0  0  0  0  0
  -34.6680  154.4240    5.5230 C   0  0  0  0  0  0  0  0  0  0  0  0
  -33.4930  154.4030    5.8740 O   0  0  0  0  0  0  0  0  0  0  0  0
  -35.4220  155.7120    5.3810 C   0  0  0  0  0  0  0  0  0  0  0  0
  -36.6900  155.7080    4.8250 C   0  0  0  0  0  0  0  0  0  0  0  0
  -37.3500  156.9260    4.7240 C   0  0  0  0  0  0  0  0  0  0  0  0
  -38.5950  156.9150    4.1370 O   0  0  0  0  0  0  0  0  0  0  0  0
  -38.7690  157.6730    3.0040 C   0  0  0  0  0  0  0  0  0  0  0  0
  -37.7360  157.9260    2.0960 C   0  0  0  0  0  0  0  0  0  0  0  0
  -37.9630  158.7350    0.9750 C   0  0  0  0  0  0  0  0  0  0  0  0
  -39.2190  159.3050    0.7650 C   0  0  0  0  0  0  0  0  0  0  0  0
  -39.5460  160.1400   -0.3260 N   0  0  0  0  0  0  0  0  0  0  0  0
  -38.8880  160.2360   -1.5410 C   0  0  0  0  0  0  0  0  0  0  0  0
  -37.9470  159.5310   -1.8810 O   0  0  0  0  0  0  0  0  0  0  0  0
  -39.4480  161.2440   -2.3130 N   0  0  0  0  0  0  0  0  0  0  0  0
  -39.1190  161.5930   -3.6390 C   0  0  0  0  0  0  0  0  0  0  0  0
  -39.0860  160.6910   -4.7000 C   0  0  0  0  0  0  0  0  0  0  0  0
  -38.7570  161.1240   -5.9870 C   0  0  0  0  0  0  0  0  0  0  0  0
  -38.4620  162.4670   -6.2320 C   0  0  0  0  0  0  0  0  0  0  0  0
  -38.0680  162.9180   -7.8500 Cl  0  0  0  0  0  0  0  0  0  0  0  0
  -38.4940  163.3950   -5.1880 C   0  0  0  0  0  0  0  0  0  0  0  0
  -38.1860  164.8490   -5.4170 C   0  0  0  0  0  0  0  0  0  0  0  0
  -38.7170  165.3330   -6.5720 F   0  0  0  0  0  0  0  0  0  0  0  0
  -36.8510  165.1130   -5.4610 F   0  0  0  0  0  0  0  0  0  0  0  0
  -38.6780  165.6550   -4.4310 F   0  0  0  0  0  0  0  0  0  0  0  0
  -38.8270  162.9410   -3.8930 C   0  0  0  0  0  0  0  0  0  0  0  0
  -40.2290  159.0650    1.7070 C   0  0  0  0  0  0  0  0  0  0  0  0
  -41.4390  159.6230    1.5300 F   0  0  0  0  0  0  0  0  0  0  0  0
  -40.0160  158.2620    2.8230 C   0  0  0  0  0  0  0  0  0  0  0  0
  -36.7220  158.0980    5.1390 C   0  0  0  0  0  0  0  0  0  0  0  0
  -35.4520  158.0000    5.6800 C   0  0  0  0  0  0  0  0  0  0  0  0
  -34.7830  156.8360    5.8190 N   0  0  0  0  0  0  0  0  0  0  0  0
  -34.8272  151.7635    6.5150 H   0  0  0  0  0  0  0  0  0  0  0  0
  -35.5897  151.2418    4.9745 H   0  0  0  0  0  0  0  0  0  0  0  0
  -33.9108  151.8805    4.9745 H   0  0  0  0  0  0  0  0  0  0  0  0
  -36.4000  153.4520    5.0570 H   0  0  0  0  0  0  0  0  0  0  0  0
  -37.1572  154.7752    4.4763 H   0  0  0  0  0  0  0  0  0  0  0  0
  -36.7409  157.4879    2.2627 H   0  0  0  0  0  0  0  0  0  0  0  0
  -37.1492  158.9212    0.2588 H   0  0  0  0  0  0  0  0  0  0  0  0
  -40.4430  160.6000   -0.2500 H   0  0  0  0  0  0  0  0  0  0  0  0
  -40.0700  161.8720   -1.8260 H   0  0  0  0  0  0  0  0  0  0  0  0
  -39.3205  159.6309   -4.5234 H   0  0  0  0  0  0  0  0  0  0  0  0
  -38.7301  160.4004   -6.8151 H   0  0  0  0  0  0  0  0  0  0  0  0
  -38.8581  163.6623   -3.0631 H   0  0  0  0  0  0  0  0  0  0  0  0
  -40.8226  158.0952    3.5521 H   0  0  0  0  0  0  0  0  0  0  0  0
  -37.2211  159.0732    5.0396 H   0  0  0  0  0  0  0  0  0  0  0  0
  -34.9592  158.9242    6.0162 H   0  0  0  0  0  0  0  0  0  0  0  0
  1  2  1  0
  2  3  1  0
  3  4  2  0
  3  5  1  0
  5  6  2  0
  6  7  1  0
  7  8  1  0
  8  9  1  0
  9 10  1  0
 10 11  2  0
 11 12  1  0
 12 13  1  0
 13 14  1  0
 14 15  2  0
 14 16  1  0
 16 17  1  0
 17 18  1  0
 18 19  2  0
 19 20  1  0
 20 21  1  0
 20 22  2  0
 22 23  1  0
 23 24  1  0
 23 25  1  0
 23 26  1  0
 22 27  1  0
 12 28  2  0
 28 29  1  0
 28 30  1  0
  7 31  2  0
 31 32  1  0
 32 33  2  0
 33  5  1  0
 30  9  2  0
 27 17  2  0
  1 34  1  0
  1 35  1  0
  1 36  1  0
  2 37  1  0
  6 38  1  0
 10 39  1  0
 11 40  1  0
 13 41  1  0
 16 42  1  0
 18 43  1  0
 19 44  1  0
 27 45  1  0
 30 46  1  0
 31 47  1  0
 32 48  1  0
M  END
>  <meeko>  (6) 
{"is_sidechain": false}

>  <vina_affinity_kcal_mol>  (6) 
-10.432

>  <pose_rank>  (6) 
6

$$$$

     RDKit          3D

 48 50  0  0  0  0  0  0  0  0999 V2000
  -34.6990  148.6600    2.3710 C   0  0  0  0  0  0  0  0  0  0  0  0
  -34.7930  149.2530    3.6760 N   0  0  0  0  0  0  0  0  0  0  0  0
  -34.8870  148.4990    4.8270 C   0  0  0  0  0  0  0  0  0  0  0  0
  -34.8020  147.2760    4.8590 O   0  0  0  0  0  0  0  0  0  0  0  0
  -35.1170  149.3010    6.0720 C   0  0  0  0  0  0  0  0  0  0  0  0
  -34.7870  150.6460    6.0940 C   0  0  0  0  0  0  0  0  0  0  0  0
  -35.0290  151.3470    7.2690 C   0  0  0  0  0  0  0  0  0  0  0  0
  -34.6640  152.6740    7.2900 O   0  0  0  0  0  0  0  0  0  0  0  0
  -35.4930  153.5700    6.6570 C   0  0  0  0  0  0  0  0  0  0  0  0
  -35.6010  154.9090    7.0480 C   0  0  0  0  0  0  0  0  0  0  0  0
  -36.4880  155.7680    6.3870 C   0  0  0  0  0  0  0  0  0  0  0  0
  -37.2800  155.2900    5.3430 C   0  0  0  0  0  0  0  0  0  0  0  0
  -38.2080  156.0720    4.6210 N   0  0  0  0  0  0  0  0  0  0  0  0
  -37.9470  156.9380    3.5720 C   0  0  0  0  0  0  0  0  0  0  0  0
  -36.8490  157.0930    3.0550 O   0  0  0  0  0  0  0  0  0  0  0  0
  -39.1060  157.6020    3.1960 N   0  0  0  0  0  0  0  0  0  0  0  0
  -39.2720  158.4950    2.1180 C   0  0  0  0  0  0  0  0  0  0  0  0
  -38.2380  158.9130    1.2830 C   0  0  0  0  0  0  0  0  0  0  0  0
  -38.4930  159.7950    0.2290 C   0  0  0  0  0  0  0  0  0  0  0  0
  -39.7850  160.2690   -0.0050 C   0  0  0  0  0  0  0  0  0  0  0  0
  -40.0130  161.3540   -1.3270 Cl  0  0  0  0  0  0  0  0  0  0  0  0
  -40.8420  159.8610    0.8130 C   0  0  0  0  0  0  0  0  0  0  0  0
  -42.2470  160.3480    0.5860 C   0  0  0  0  0  0  0  0  0  0  0  0
  -42.7750  159.9260   -0.5940 F   0  0  0  0  0  0  0  0  0  0  0  0
  -42.3520  161.7060    0.5970 F   0  0  0  0  0  0  0  0  0  0  0  0
  -43.1170  159.9140    1.5450 F   0  0  0  0  0  0  0  0  0  0  0  0
  -40.5680  158.9700    1.8730 C   0  0  0  0  0  0  0  0  0  0  0  0
  -37.1780  153.9360    4.9910 C   0  0  0  0  0  0  0  0  0  0  0  0
  -37.9480  153.4550    4.0010 F   0  0  0  0  0  0  0  0  0  0  0  0
  -36.3000  153.0740    5.6390 C   0  0  0  0  0  0  0  0  0  0  0  0
  -35.5480  150.6890    8.3810 C   0  0  0  0  0  0  0  0  0  0  0  0
  -35.8440  149.3420    8.2620 C   0  0  0  0  0  0  0  0  0  0  0  0
  -35.6480  148.6280    7.1340 N   0  0  0  0  0  0  0  0  0  0  0  0
  -34.5275  147.5781    2.4714 H   0  0  0  0  0  0  0  0  0  0  0  0
  -35.6358  148.8333    1.8212 H   0  0  0  0  0  0  0  0  0  0  0  0
  -33.8617  149.1145    1.8212 H   0  0  0  0  0  0  0  0  0  0  0  0
  -34.9820  150.2460    3.7800 H   0  0  0  0  0  0  0  0  0  0  0  0
  -34.3497  151.1407    5.2142 H   0  0  0  0  0  0  0  0  0  0  0  0
  -34.9868  155.2886    7.8779 H   0  0  0  0  0  0  0  0  0  0  0  0
  -36.5603  156.8224    6.6920 H   0  0  0  0  0  0  0  0  0  0  0  0
  -39.1780  155.8510    4.8060 H   0  0  0  0  0  0  0  0  0  0  0  0
  -39.8790  157.5300    3.8410 H   0  0  0  0  0  0  0  0  0  0  0  0
  -37.2150  158.5468    1.4542 H   0  0  0  0  0  0  0  0  0  0  0  0
  -37.6677  160.1187   -0.4223 H   0  0  0  0  0  0  0  0  0  0  0  0
  -41.3919  158.6402    2.5229 H   0  0  0  0  0  0  0  0  0  0  0  0
  -36.2446  152.0140    5.3502 H   0  0  0  0  0  0  0  0  0  0  0  0
  -35.7179  151.2242    9.3269 H   0  0  0  0  0  0  0  0  0  0  0  0
  -36.2630  148.8240    9.1372 H   0  0  0  0  0  0  0  0  0  0  0  0
  1  2  1  0
  2  3  1  0
  3  4  2  0
  3  5  1  0
  5  6  2  0
  6  7  1  0
  7  8  1  0
  8  9  1  0
  9 10  1  0
 10 11  2  0
 11 12  1  0
 12 13  1  0
 13 14  1  0
 14 15  2  0
 14 16  1  0
 16 17  1  0
 17 18  1  0
 18 19  2  0
 19 20  1  0
 20 21  1  0
 20 22  2  0
 22 23  1  0
 23 24  1  0
 23 25  1  0
 23 26  1  0
 22 27  1  0
 12 28  2  0
 28 29  1  0
 28 30  1  0
  7 31  2  0
 31 32  1  0
 32 33  2  0
 33  5  1  0
 30  9  2  0
 27 17  2  0
  1 34  1  0
  1 35  1  0
  1 36  1  0
  2 37  1  0
  6 38  1  0
 10 39  1  0
 11 40  1  0
 13 41  1  0
 16 42  1  0
 18 43  1  0
 19 44  1  0
 27 45  1  0
 30 46  1  0
 31 47  1  0
 32 48  1  0
M  END
>  <meeko>  (7) 
{"is_sidechain": false}

>  <vina_affinity_kcal_mol>  (7) 
-10.272

>  <pose_rank>  (7) 
7

$$$$

     RDKit          3D

 48 50  0  0  0  0  0  0  0  0999 V2000
  -34.5710  148.6120    1.8700 C   0  0  0  0  0  0  0  0  0  0  0  0
  -34.5510  149.1440    3.2040 N   0  0  0  0  0  0  0  0  0  0  0  0
  -35.5970  148.9700    4.0870 C   0  0  0  0  0  0  0  0  0  0  0  0
  -36.5810  148.2760    3.8600 O   0  0  0  0  0  0  0  0  0  0  0  0
  -35.4450  149.7210    5.3760 C   0  0  0  0  0  0  0  0  0  0  0  0
  -34.8140  150.9530    5.3840 C   0  0  0  0  0  0  0  0  0  0  0  0
  -34.7080  151.6120    6.6020 C   0  0  0  0  0  0  0  0  0  0  0  0
  -34.0470  152.8190    6.6030 O   0  0  0  0  0  0  0  0  0  0  0  0
  -34.7010  153.9020    6.0630 C   0  0  0  0  0  0  0  0  0  0  0  0
  -34.0710  154.8250    5.2240 C   0  0  0  0  0  0  0  0  0  0  0  0
  -34.7790  155.9280    4.7300 C   0  0  0  0  0  0  0  0  0  0  0  0
  -36.1150  156.1200    5.0850 C   0  0  0  0  0  0  0  0  0  0  0  0
  -36.9110  157.2010    4.6490 N   0  0  0  0  0  0  0  0  0  0  0  0
  -37.7990  157.2210    3.5860 C   0  0  0  0  0  0  0  0  0  0  0  0
  -38.0860  156.2480    2.9010 O   0  0  0  0  0  0  0  0  0  0  0  0
  -38.3110  158.4980    3.4100 N   0  0  0  0  0  0  0  0  0  0  0  0
  -39.3040  158.9060    2.4950 C   0  0  0  0  0  0  0  0  0  0  0  0
  -40.6690  158.6940    2.6760 C   0  0  0  0  0  0  0  0  0  0  0  0
  -41.5870  159.1400    1.7220 C   0  0  0  0  0  0  0  0  0  0  0  0
  -41.1520  159.8080    0.5760 C   0  0  0  0  0  0  0  0  0  0  0  0
  -42.3520  160.3270   -0.5510 Cl  0  0  0  0  0  0  0  0  0  0  0  0
  -39.7900  160.0410    0.3720 C   0  0  0  0  0  0  0  0  0  0  0  0
  -39.2880  160.7620   -0.8490 C   0  0  0  0  0  0  0  0  0  0  0  0
  -39.6620  162.0690   -0.8900 F   0  0  0  0  0  0  0  0  0  0  0  0
  -39.7110  160.1990   -2.0150 F   0  0  0  0  0  0  0  0  0  0  0  0
  -37.9250  160.7760   -0.9320 F   0  0  0  0  0  0  0  0  0  0  0  0
  -38.8760  159.5840    1.3450 C   0  0  0  0  0  0  0  0  0  0  0  0
  -36.7150  155.1980    5.9550 C   0  0  0  0  0  0  0  0  0  0  0  0
  -37.9950  155.3780    6.3220 F   0  0  0  0  0  0  0  0  0  0  0  0
  -36.0220  154.0980    6.4500 C   0  0  0  0  0  0  0  0  0  0  0  0
  -35.1920  151.0160    7.7640 C   0  0  0  0  0  0  0  0  0  0  0  0
  -35.8070  149.7800    7.6540 C   0  0  0  0  0  0  0  0  0  0  0  0
  -35.9530  149.1150    6.4890 N   0  0  0  0  0  0  0  0  0  0  0  0
  -34.6123  147.5137    1.9139 H   0  0  0  0  0  0  0  0  0  0  0  0
  -35.4555  148.9912    1.3372 H   0  0  0  0  0  0  0  0  0  0  0  0
  -33.6605  148.9237    1.3372 H   0  0  0  0  0  0  0  0  0  0  0  0
  -33.8480  149.8260    3.4770 H   0  0  0  0  0  0  0  0  0  0  0  0
  -34.4115  151.3937    4.4600 H   0  0  0  0  0  0  0  0  0  0  0  0
  -33.0148  154.6848    4.9504 H   0  0  0  0  0  0  0  0  0  0  0  0
  -34.2808  156.6447    4.0606 H   0  0  0  0  0  0  0  0  0  0  0  0
  -36.9310  157.9910    5.2810 H   0  0  0  0  0  0  0  0  0  0  0  0
  -37.8310  159.2330    3.9070 H   0  0  0  0  0  0  0  0  0  0  0  0
  -41.0263  158.1720    3.5759 H   0  0  0  0  0  0  0  0  0  0  0  0
  -42.6619  158.9633    1.8752 H   0  0  0  0  0  0  0  0  0  0  0  0
  -37.8009  159.7642    1.1975 H   0  0  0  0  0  0  0  0  0  0  0  0
  -36.5122  153.3933    7.1378 H   0  0  0  0  0  0  0  0  0  0  0  0
  -35.0889  151.5123    8.7402 H   0  0  0  0  0  0  0  0  0  0  0  0
  -36.1993  149.3133    8.5696 H   0  0  0  0  0  0  0  0  0  0  0  0
  1  2  1  0
  2  3  1  0
  3  4  2  0
  3  5  1  0
  5  6  2  0
  6  7  1  0
  7  8  1  0
  8  9  1  0
  9 10  1  0
 10 11  2  0
 11 12  1  0
 12 13  1  0
 13 14  1  0
 14 15  2  0
 14 16  1  0
 16 17  1  0
 17 18  1  0
 18 19  2  0
 19 20  1  0
 20 21  1  0
 20 22  2  0
 22 23  1  0
 23 24  1  0
 23 25  1  0
 23 26  1  0
 22 27  1  0
 12 28  2  0
 28 29  1  0
 28 30  1  0
  7 31  2  0
 31 32  1  0
 32 33  2  0
 33  5  1  0
 30  9  2  0
 27 17  2  0
  1 34  1  0
  1 35  1  0
  1 36  1  0
  2 37  1  0
  6 38  1  0
 10 39  1  0
 11 40  1  0
 13 41  1  0
 16 42  1  0
 18 43  1  0
 19 44  1  0
 27 45  1  0
 30 46  1  0
 31 47  1  0
 32 48  1  0
M  END
>  <meeko>  (8) 
{"is_sidechain": false}

>  <vina_affinity_kcal_mol>  (8) 
-10.262

>  <pose_rank>  (8) 
8

$$$$

     RDKit          3D

 48 50  0  0  0  0  0  0  0  0999 V2000
  -33.5310  169.3140  -11.4450 C   0  0  0  0  0  0  0  0  0  0  0  0
  -33.9610  167.9460  -11.3550 N   0  0  0  0  0  0  0  0  0  0  0  0
  -35.2860  167.5940  -11.2060 C   0  0  0  0  0  0  0  0  0  0  0  0
  -36.2180  168.3900  -11.2360 O   0  0  0  0  0  0  0  0  0  0  0  0
  -35.5130  166.1280  -10.9890 C   0  0  0  0  0  0  0  0  0  0  0  0
  -36.7110  165.6910  -10.4480 C   0  0  0  0  0  0  0  0  0  0  0  0
  -36.8760  164.3230  -10.2760 C   0  0  0  0  0  0  0  0  0  0  0  0
  -38.0560  163.9030   -9.7050 O   0  0  0  0  0  0  0  0  0  0  0  0
  -37.9910  163.3480   -8.4490 C   0  0  0  0  0  0  0  0  0  0  0  0
  -37.8090  161.9780   -8.2350 C   0  0  0  0  0  0  0  0  0  0  0  0
  -37.7840  161.4640   -6.9320 C   0  0  0  0  0  0  0  0  0  0  0  0
  -37.9550  162.3150   -5.8390 C   0  0  0  0  0  0  0  0  0  0  0  0
  -37.9550  161.8960   -4.4910 N   0  0  0  0  0  0  0  0  0  0  0  0
  -39.0450  161.5200   -3.7240 C   0  0  0  0  0  0  0  0  0  0  0  0
  -40.1910  161.4210   -4.1440 O   0  0  0  0  0  0  0  0  0  0  0  0
  -38.6530  161.2760   -2.4160 N   0  0  0  0  0  0  0  0  0  0  0  0
  -39.4480  160.7920   -1.3570 C   0  0  0  0  0  0  0  0  0  0  0  0
  -40.8170  161.0260   -1.2370 C   0  0  0  0  0  0  0  0  0  0  0  0
  -41.5320  160.5000   -0.1580 C   0  0  0  0  0  0  0  0  0  0  0  0
  -40.8900  159.7280    0.8130 C   0  0  0  0  0  0  0  0  0  0  0  0
  -41.8470  159.1160    2.1110 Cl  0  0  0  0  0  0  0  0  0  0  0  0
  -39.5200  159.4720    0.7130 C   0  0  0  0  0  0  0  0  0  0  0  0
  -38.7980  158.6410    1.7380 C   0  0  0  0  0  0  0  0  0  0  0  0
  -37.4540  158.5910    1.5350 F   0  0  0  0  0  0  0  0  0  0  0  0
  -39.2330  157.3520    1.7870 F   0  0  0  0  0  0  0  0  0  0  0  0
  -38.9520  159.1190    3.0080 F   0  0  0  0  0  0  0  0  0  0  0  0
  -38.8120  160.0110   -0.3820 C   0  0  0  0  0  0  0  0  0  0  0  0
  -38.1690  163.6800   -6.0810 C   0  0  0  0  0  0  0  0  0  0  0  0
  -38.3550  164.5100   -5.0410 F   0  0  0  0  0  0  0  0  0  0  0  0
  -38.1940  164.2020   -7.3700 C   0  0  0  0  0  0  0  0  0  0  0  0
  -35.8440  163.4470  -10.6060 C   0  0  0  0  0  0  0  0  0  0  0  0
  -34.6820  163.9800  -11.1380 C   0  0  0  0  0  0  0  0  0  0  0  0
  -34.4890  165.3000  -11.3450 N   0  0  0  0  0  0  0  0  0  0  0  0
  -33.4018  169.7251  -10.4329 H   0  0  0  0  0  0  0  0  0  0  0  0
  -32.5742  169.3628  -11.9855 H   0  0  0  0  0  0  0  0  0  0  0  0
  -34.2878  169.9014  -11.9855 H   0  0  0  0  0  0  0  0  0  0  0  0
  -33.2840  167.2010  -11.2080 H   0  0  0  0  0  0  0  0  0  0  0  0
  -37.5021  166.4011  -10.1652 H   0  0  0  0  0  0  0  0  0  0  0  0
  -37.6850  161.3012   -9.0933 H   0  0  0  0  0  0  0  0  0  0  0  0
  -37.6292  160.3871   -6.7699 H   0  0  0  0  0  0  0  0  0  0  0  0
  -37.0370  161.7150   -4.1060 H   0  0  0  0  0  0  0  0  0  0  0  0
  -37.7290  161.5980   -2.1700 H   0  0  0  0  0  0  0  0  0  0  0  0
  -41.3374  161.6283   -1.9962 H   0  0  0  0  0  0  0  0  0  0  0  0
  -42.6110  160.6958   -0.0724 H   0  0  0  0  0  0  0  0  0  0  0  0
  -37.7337  159.8134   -0.4729 H   0  0  0  0  0  0  0  0  0  0  0  0
  -38.3718  165.2751   -7.5338 H   0  0  0  0  0  0  0  0  0  0  0  0
  -35.9493  162.3634  -10.4485 H   0  0  0  0  0  0  0  0  0  0  0  0
  -33.8700  163.2885  -11.4073 H   0  0  0  0  0  0  0  0  0  0  0  0
  1  2  1  0
  2  3  1  0
  3  4  2  0
  3  5  1  0
  5  6  2  0
  6  7  1  0
  7  8  1  0
  8  9  1  0
  9 10  1  0
 10 11  2  0
 11 12  1  0
 12 13  1  0
 13 14  1  0
 14 15  2  0
 14 16  1  0
 16 17  1  0
 17 18  1  0
 18 19  2  0
 19 20  1  0
 20 21  1  0
 20 22  2  0
 22 23  1  0
 23 24  1  0
 23 25  1  0
 23 26  1  0
 22 27  1  0
 12 28  2  0
 28 29  1  0
 28 30  1  0
  7 31  2  0
 31 32  1  0
 32 33  2  0
 33  5  1  0
 30  9  2  0
 27 17  2  0
  1 34  1  0
  1 35  1  0
  1 36  1  0
  2 37  1  0
  6 38  1  0
 10 39  1  0
 11 40  1  0
 13 41  1  0
 16 42  1  0
 18 43  1  0
 19 44  1  0
 27 45  1  0
 30 46  1  0
 31 47  1  0
 32 48  1  0
M  END
>  <meeko>  (9) 
{"is_sidechain": false}

>  <vina_affinity_kcal_mol>  (9) 
-9.991

>  <pose_rank>  (9) 
9

$$$$

     RDKit          3D

 48 50  0  0  0  0  0  0  0  0999 V2000
  -37.9910  157.3970  -12.1060 C   0  0  0  0  0  0  0  0  0  0  0  0
  -38.1140  158.7310  -11.5850 N   0  0  0  0  0  0  0  0  0  0  0  0
  -37.0660  159.6270  -11.5870 C   0  0  0  0  0  0  0  0  0  0  0  0
  -35.9780  159.4140  -12.1110 O   0  0  0  0  0  0  0  0  0  0  0  0
  -37.3540  160.9130  -10.8730 C   0  0  0  0  0  0  0  0  0  0  0  0
  -36.6910  161.2090   -9.6940 C   0  0  0  0  0  0  0  0  0  0  0  0
  -36.9860  162.4170   -9.0770 C   0  0  0  0  0  0  0  0  0  0  0  0
  -36.3470  162.6830   -7.8870 O   0  0  0  0  0  0  0  0  0  0  0  0
  -37.1140  162.7070   -6.7460 C   0  0  0  0  0  0  0  0  0  0  0  0
  -36.9900  163.7020   -5.7700 C   0  0  0  0  0  0  0  0  0  0  0  0
  -37.7750  163.6560   -4.6110 C   0  0  0  0  0  0  0  0  0  0  0  0
  -38.6770  162.6100   -4.4170 C   0  0  0  0  0  0  0  0  0  0  0  0
  -39.5060  162.4690   -3.2820 N   0  0  0  0  0  0  0  0  0  0  0  0
  -39.5440  161.4080   -2.3920 C   0  0  0  0  0  0  0  0  0  0  0  0
  -38.7860  160.4480   -2.4210 O   0  0  0  0  0  0  0  0  0  0  0  0
  -40.5640  161.5910   -1.4690 N   0  0  0  0  0  0  0  0  0  0  0  0
  -40.8700  160.7810   -0.3560 C   0  0  0  0  0  0  0  0  0  0  0  0
  -42.1540  160.6090    0.1570 C   0  0  0  0  0  0  0  0  0  0  0  0
  -42.3700  159.7790    1.2610 C   0  0  0  0  0  0  0  0  0  0  0  0
  -41.3040  159.1060    1.8630 C   0  0  0  0  0  0  0  0  0  0  0  0
  -41.6580  158.1000    3.2190 Cl  0  0  0  0  0  0  0  0  0  0  0  0
  -40.0080  159.2550    1.3650 C   0  0  0  0  0  0  0  0  0  0  0  0
  -38.8390  158.5410    1.9870 C   0  0  0  0  0  0  0  0  0  0  0  0
  -38.9980  157.1910    2.0300 F   0  0  0  0  0  0  0  0  0  0  0  0
  -38.5820  158.9440    3.2620 F   0  0  0  0  0  0  0  0  0  0  0  0
  -37.6730  158.7440    1.3050 F   0  0  0  0  0  0  0  0  0  0  0  0
  -39.8070  160.0970    0.2500 C   0  0  0  0  0  0  0  0  0  0  0  0
  -38.7600  161.6070   -5.3930 C   0  0  0  0  0  0  0  0  0  0  0  0
  -39.6090  160.5810   -5.2120 F   0  0  0  0  0  0  0  0  0  0  0  0
  -37.9870  161.6420   -6.5490 C   0  0  0  0  0  0  0  0  0  0  0  0
  -37.9470  163.2650   -9.6220 C   0  0  0  0  0  0  0  0  0  0  0  0
  -38.5580  162.8810  -10.8040 C   0  0  0  0  0  0  0  0  0  0  0  0
  -38.2850  161.7280  -11.4500 N   0  0  0  0  0  0  0  0  0  0  0  0
  -37.9251  156.6824  -11.2723 H   0  0  0  0  0  0  0  0  0  0  0  0
  -38.8712  157.1614  -12.7222 H   0  0  0  0  0  0  0  0  0  0  0  0
  -37.0825  157.3263  -12.7222 H   0  0  0  0  0  0  0  0  0  0  0  0
  -38.9230  158.9940  -11.0270 H   0  0  0  0  0  0  0  0  0  0  0  0
  -35.9574  160.5124   -9.2621 H   0  0  0  0  0  0  0  0  0  0  0  0
  -36.2730  164.5237   -5.9136 H   0  0  0  0  0  0  0  0  0  0  0  0
  -37.6800  164.4466   -3.8521 H   0  0  0  0  0  0  0  0  0  0  0  0
  -40.0120  163.3050   -3.0240 H   0  0  0  0  0  0  0  0  0  0  0  0
  -41.2320  162.3130   -1.6940 H   0  0  0  0  0  0  0  0  0  0  0  0
  -43.0032  161.1296   -0.3097 H   0  0  0  0  0  0  0  0  0  0  0  0
  -43.3879  159.6548    1.6590 H   0  0  0  0  0  0  0  0  0  0  0  0
  -38.7910  160.2194   -0.1534 H   0  0  0  0  0  0  0  0  0  0  0  0
  -38.0650  160.8390   -7.2967 H   0  0  0  0  0  0  0  0  0  0  0  0
  -38.2128  164.2114   -9.1284 H   0  0  0  0  0  0  0  0  0  0  0  0
  -39.3093  163.5548  -11.2416 H   0  0  0  0  0  0  0  0  0  0  0  0
  1  2  1  0
  2  3  1  0
  3  4  2  0
  3  5  1  0
  5  6  2  0
  6  7  1  0
  7  8  1  0
  8  9  1  0
  9 10  1  0
 10 11  2  0
 11 12  1  0
 12 13  1  0
 13 14  1  0
 14 15  2  0
 14 16  1  0
 16 17  1  0
 17 18  1  0
 18 19  2  0
 19 20  1  0
 20 21  1  0
 20 22  2  0
 22 23  1  0
 23 24  1  0
 23 25  1  0
 23 26  1  0
 22 27  1  0
 12 28  2  0
 28 29  1  0
 28 30  1  0
  7 31  2  0
 31 32  1  0
 32 33  2  0
 33  5  1  0
 30  9  2  0
 27 17  2  0
  1 34  1  0
  1 35  1  0
  1 36  1  0
  2 37  1  0
  6 38  1  0
 10 39  1  0
 11 40  1  0
 13 41  1  0
 16 42  1  0
 18 43  1  0
 19 44  1  0
 27 45  1  0
 30 46  1  0
 31 47  1  0
 32 48  1  0
M  END
>  <meeko>  (10) 
{"is_sidechain": false}

>  <vina_affinity_kcal_mol>  (10) 
-9.861

>  <pose_rank>  (10) 
10

$$$$
