
     RDKit          3D

 46 49  0  0  0  0  0  0  0  0999 V2000
  -16.5380   -0.5130   -6.6030 C   0  0  0  0  0  0  0  0  0  0  0  0
  -15.1020   -0.5450   -6.6910 N   0  0  0  0  0  0  0  0  0  0  0  0
  -14.3960    0.5050   -7.2350 C   0  0  0  0  0  0  0  0  0  0  0  0
  -14.9190    1.4710   -7.7780 O   0  0  0  0  0  0  0  0  0  0  0  0
  -12.9160    0.4090   -7.1690 C   0  0  0  0  0  0  0  0  0  0  0  0
  -12.3130    0.9720   -6.0300 C   0  0  0  0  0  0  0  0  0  0  0  0
  -10.9280    0.9390   -5.8720 C   0  0  0  0  0  0  0  0  0  0  0  0
  -10.1370    0.3380   -6.8450 C   0  0  0  0  0  0  0  0  0  0  0  0
  -10.7280   -0.2410   -7.9710 C   0  0  0  0  0  0  0  0  0  0  0  0
  -12.1230   -0.2240   -8.1420 C   0  0  0  0  0  0  0  0  0  0  0  0
  -12.7760   -1.0530   -9.5910 S   0  0  0  0  0  0  0  0  0  0  0  0
  -12.5610    0.2340  -10.8150 C   0  0  0  0  0  0  0  0  0  0  0  0
  -11.3380    0.3400  -11.4860 C   0  0  0  0  0  0  0  0  0  0  0  0
  -11.1270    1.3350  -12.4530 C   0  0  0  0  0  0  0  0  0  0  0  0
  -12.1670    2.2390  -12.7460 C   0  0  0  0  0  0  0  0  0  0  0  0
  -12.3590    3.3480  -13.6250 C   0  0  0  0  0  0  0  0  0  0  0  0
  -11.3700    3.8480  -14.5360 C   0  0  0  0  0  0  0  0  0  0  0  0
  -11.5380    4.9100  -15.3430 C   0  0  0  0  0  0  0  0  0  0  0  0
  -10.5170    5.4100  -16.2700 C   0  0  0  0  0  0  0  0  0  0  0  0
  -10.4360    6.7720  -16.5460 C   0  0  0  0  0  0  0  0  0  0  0  0
   -9.4570    7.2220  -17.4300 C   0  0  0  0  0  0  0  0  0  0  0  0
   -8.5920    6.3060  -18.0120 C   0  0  0  0  0  0  0  0  0  0  0  0
   -8.7420    4.9690  -17.6840 C   0  0  0  0  0  0  0  0  0  0  0  0
   -9.6790    4.5030  -16.8300 N   0  0  0  0  0  0  0  0  0  0  0  0
  -13.5880    3.8710  -13.4910 N   0  0  0  0  0  0  0  0  0  0  0  0
  -14.1670    3.1090  -12.5490 N   0  0  0  0  0  0  0  0  0  0  0  0
  -13.3680    2.1150  -12.0580 C   0  0  0  0  0  0  0  0  0  0  0  0
  -13.6010    1.1370  -11.0850 C   0  0  0  0  0  0  0  0  0  0  0  0
  -16.8405   -0.5063   -5.5454 H   0  0  0  0  0  0  0  0  0  0  0  0
  -16.9156    0.3938   -7.0982 H   0  0  0  0  0  0  0  0  0  0  0  0
  -16.9556   -1.4021   -7.0982 H   0  0  0  0  0  0  0  0  0  0  0  0
  -14.6000   -1.2210   -6.1270 H   0  0  0  0  0  0  0  0  0  0  0  0
  -12.9391    1.4422   -5.2574 H   0  0  0  0  0  0  0  0  0  0  0  0
  -10.4630    1.3866   -4.9812 H   0  0  0  0  0  0  0  0  0  0  0  0
   -9.0434    0.3183   -6.7280 H   0  0  0  0  0  0  0  0  0  0  0  0
  -10.0933   -0.7162   -8.7334 H   0  0  0  0  0  0  0  0  0  0  0  0
  -10.5290   -0.3677  -11.2520 H   0  0  0  0  0  0  0  0  0  0  0  0
  -10.1618    1.4081  -12.9755 H   0  0  0  0  0  0  0  0  0  0  0  0
  -10.4036    3.3242  -14.5772 H   0  0  0  0  0  0  0  0  0  0  0  0
  -12.5025    5.4376  -15.3058 H   0  0  0  0  0  0  0  0  0  0  0  0
  -11.1326    7.4808  -16.0745 H   0  0  0  0  0  0  0  0  0  0  0  0
   -9.3707    8.2933  -17.6642 H   0  0  0  0  0  0  0  0  0  0  0  0
   -7.8100    6.6325  -18.7134 H   0  0  0  0  0  0  0  0  0  0  0  0
   -8.0571    4.2431  -18.1466 H   0  0  0  0  0  0  0  0  0  0  0  0
  -15.1230    3.3180  -12.2840 H   0  0  0  0  0  0  0  0  0  0  0  0
  -14.5617    1.0781  -10.5525 H   0  0  0  0  0  0  0  0  0  0  0  0
  1  2  1  0
  2  3  1  0
  3  4  2  0
  3  5  1  0
  5  6  2  0
  6  7  1  0
  7  8  2  0
  8  9  1  0
  9 10  2  0
 10 11  1  0
 11 12  1  0
 12 13  2  0
 13 14  1  0
 14 15  2  0
 15 16  1  0
 16 17  1  0
 17 18  2  0
 18 19  1  0
 19 20  2  0
 20 21  1  0
 21 22  2  0
 22 23  1  0
 23 24  2  0
 16 25  2  0
 25 26  1  0
 26 27  1  0
 27 28  2  0
 10  5  1  0
 28 12  1  0
 27 15  1  0
 24 19  1  0
  1 29  1  0
  1 30  1  0
  1 31  1  0
  2 32  1  0
  6 33  1  0
  7 34  1  0
  8 35  1  0
  9 36  1  0
 13 37  1  0
 14 38  1  0
 17 39  1  0
 18 40  1  0
 20 41  1  0
 21 42  1  0
 22 43  1  0
 23 44  1  0
 26 45  1  0
 28 46  1  0
M  END
>  <meeko>  (1) 
{"is_sidechain": false}

>  <vina_affinity_kcal_mol>  (1) 
-8.778

>  <pose_rank>  (1) 
1

$$$$

     RDKit          3D

 46 49  0  0  0  0  0  0  0  0999 V2000
   -9.2630    0.0440   -7.0550 C   0  0  0  0  0  0  0  0  0  0  0  0
   -9.9680   -0.8270   -7.9590 N   0  0  0  0  0  0  0  0  0  0  0  0
  -11.0340   -1.5880   -7.5320 C   0  0  0  0  0  0  0  0  0  0  0  0
  -11.3850   -1.6750   -6.3610 O   0  0  0  0  0  0  0  0  0  0  0  0
  -11.7530   -2.3600   -8.5760 C   0  0  0  0  0  0  0  0  0  0  0  0
  -11.2330   -3.6330   -8.8680 C   0  0  0  0  0  0  0  0  0  0  0  0
  -11.8320   -4.4380   -9.8360 C   0  0  0  0  0  0  0  0  0  0  0  0
  -12.9570   -3.9800  -10.5150 C   0  0  0  0  0  0  0  0  0  0  0  0
  -13.4910   -2.7240  -10.2190 C   0  0  0  0  0  0  0  0  0  0  0  0
  -12.9060   -1.9030   -9.2390 C   0  0  0  0  0  0  0  0  0  0  0  0
  -13.7140   -0.3400   -8.8970 S   0  0  0  0  0  0  0  0  0  0  0  0
  -13.1720    0.6130  -10.3110 C   0  0  0  0  0  0  0  0  0  0  0  0
  -11.8590    0.4650  -10.7700 C   0  0  0  0  0  0  0  0  0  0  0  0
  -11.3930    1.1920  -11.8760 C   0  0  0  0  0  0  0  0  0  0  0  0
  -12.2660    2.0850  -12.5280 C   0  0  0  0  0  0  0  0  0  0  0  0
  -12.1960    2.9770  -13.6410 C   0  0  0  0  0  0  0  0  0  0  0  0
  -11.0320    3.1750  -14.4550 C   0  0  0  0  0  0  0  0  0  0  0  0
  -10.8340    4.2290  -15.2660 C   0  0  0  0  0  0  0  0  0  0  0  0
   -9.6370    4.4180  -16.0940 C   0  0  0  0  0  0  0  0  0  0  0  0
   -9.5010    5.5680  -16.8670 C   0  0  0  0  0  0  0  0  0  0  0  0
   -8.3560    5.7250  -17.6440 C   0  0  0  0  0  0  0  0  0  0  0  0
   -7.3820    4.7340  -17.6300 C   0  0  0  0  0  0  0  0  0  0  0  0
   -7.5960    3.6230  -16.8330 C   0  0  0  0  0  0  0  0  0  0  0  0
   -8.6960    3.4430  -16.0690 N   0  0  0  0  0  0  0  0  0  0  0  0
  -13.3630    3.6120  -13.8330 N   0  0  0  0  0  0  0  0  0  0  0  0
  -14.1600    3.1340  -12.8640 N   0  0  0  0  0  0  0  0  0  0  0  0
  -13.5620    2.2180  -12.0440 C   0  0  0  0  0  0  0  0  0  0  0  0
  -14.0490    1.5100  -10.9390 C   0  0  0  0  0  0  0  0  0  0  0  0
   -9.4931   -0.2403   -6.0176 H   0  0  0  0  0  0  0  0  0  0  0  0
   -8.1805   -0.0462   -7.2284 H   0  0  0  0  0  0  0  0  0  0  0  0
   -9.5767    1.0840   -7.2284 H   0  0  0  0  0  0  0  0  0  0  0  0
   -9.8440   -0.6880   -8.9550 H   0  0  0  0  0  0  0  0  0  0  0  0
  -10.3463   -3.9970   -8.3283 H   0  0  0  0  0  0  0  0  0  0  0  0
  -11.4169   -5.4313  -10.0621 H   0  0  0  0  0  0  0  0  0  0  0  0
  -13.4265   -4.6083  -11.2862 H   0  0  0  0  0  0  0  0  0  0  0  0
  -14.3817   -2.3721  -10.7601 H   0  0  0  0  0  0  0  0  0  0  0  0
  -11.1811   -0.2322  -10.2559 H   0  0  0  0  0  0  0  0  0  0  0  0
  -10.3590    1.0662  -12.2295 H   0  0  0  0  0  0  0  0  0  0  0  0
  -10.2438    2.4088  -14.4128 H   0  0  0  0  0  0  0  0  0  0  0  0
  -11.6188    4.9984  -15.3118 H   0  0  0  0  0  0  0  0  0  0  0  0
  -10.2849    6.3397  -16.8640 H   0  0  0  0  0  0  0  0  0  0  0  0
   -8.2239    6.6248  -18.2628 H   0  0  0  0  0  0  0  0  0  0  0  0
   -6.4680    4.8297  -18.2345 H   0  0  0  0  0  0  0  0  0  0  0  0
   -6.8242    2.8393  -16.8207 H   0  0  0  0  0  0  0  0  0  0  0  0
  -15.1130    3.4730  -12.8160 H   0  0  0  0  0  0  0  0  0  0  0  0
  -15.0782    1.6513  -10.5775 H   0  0  0  0  0  0  0  0  0  0  0  0
  1  2  1  0
  2  3  1  0
  3  4  2  0
  3  5  1  0
  5  6  2  0
  6  7  1  0
  7  8  2  0
  8  9  1  0
  9 10  2  0
 10 11  1  0
 11 12  1  0
 12 13  2  0
 13 14  1  0
 14 15  2  0
 15 16  1  0
 16 17  1  0
 17 18  2  0
 18 19  1  0
 19 20  2  0
 20 21  1  0
 21 22  2  0
 22 23  1  0
 23 24  2  0
 16 25  2  0
 25 26  1  0
 26 27  1  0
 27 28  2  0
 10  5  1  0
 28 12  1  0
 27 15  1  0
 24 19  1  0
  1 29  1  0
  1 30  1  0
  1 31  1  0
  2 32  1  0
  6 33  1  0
  7 34  1  0
  8 35  1  0
  9 36  1  0
 13 37  1  0
 14 38  1  0
 17 39  1  0
 18 40  1  0
 20 41  1  0
 21 42  1  0
 22 43  1  0
 23 44  1  0
 26 45  1  0
 28 46  1  0
M  END
>  <meeko>  (2) 
{"is_sidechain": false}

>  <vina_affinity_kcal_mol>  (2) 
-8.603

>  <pose_rank>  (2) 
2

$$$$

     RDKit          3D

 46 49  0  0  0  0  0  0  0  0999 V2000
  -13.1860   -4.8490  -11.1490 C   0  0  0  0  0  0  0  0  0  0  0  0
  -12.4100   -4.0380  -10.2480 N   0  0  0  0  0  0  0  0  0  0  0  0
  -11.4970   -3.1200  -10.7190 C   0  0  0  0  0  0  0  0  0  0  0  0
  -11.1940   -3.0040  -11.9010 O   0  0  0  0  0  0  0  0  0  0  0  0
  -10.8400   -2.2620   -9.7010 C   0  0  0  0  0  0  0  0  0  0  0  0
   -9.5060   -2.5840   -9.3950 C   0  0  0  0  0  0  0  0  0  0  0  0
   -8.7980   -1.8430   -8.4490 C   0  0  0  0  0  0  0  0  0  0  0  0
   -9.4140   -0.7730   -7.8080 C   0  0  0  0  0  0  0  0  0  0  0  0
  -10.7330   -0.4340   -8.1210 C   0  0  0  0  0  0  0  0  0  0  0  0
  -11.4590   -1.1640   -9.0780 C   0  0  0  0  0  0  0  0  0  0  0  0
  -13.1200   -0.6000   -9.4450 S   0  0  0  0  0  0  0  0  0  0  0  0
  -12.7750    0.5630  -10.7600 C   0  0  0  0  0  0  0  0  0  0  0  0
  -11.5140    0.5550  -11.3650 C   0  0  0  0  0  0  0  0  0  0  0  0
  -11.2020    1.4500  -12.3990 C   0  0  0  0  0  0  0  0  0  0  0  0
  -12.1780    2.3710  -12.8280 C   0  0  0  0  0  0  0  0  0  0  0  0
  -12.2670    3.4060  -13.8080 C   0  0  0  0  0  0  0  0  0  0  0  0
  -11.2070    3.7790  -14.6990 C   0  0  0  0  0  0  0  0  0  0  0  0
  -11.2680    4.7910  -15.5820 C   0  0  0  0  0  0  0  0  0  0  0  0
  -10.1750    5.1600  -16.4890 C   0  0  0  0  0  0  0  0  0  0  0  0
  -10.0150    6.4870  -16.8800 C   0  0  0  0  0  0  0  0  0  0  0  0
   -8.9690    6.8130  -17.7400 C   0  0  0  0  0  0  0  0  0  0  0  0
   -8.1170    5.8120  -18.1870 C   0  0  0  0  0  0  0  0  0  0  0  0
   -8.3470    4.5190  -17.7500 C   0  0  0  0  0  0  0  0  0  0  0  0
   -9.3510    4.1720  -16.9150 N   0  0  0  0  0  0  0  0  0  0  0  0
  -13.4740    3.9930  -13.7900 N   0  0  0  0  0  0  0  0  0  0  0  0
  -14.1410    3.3440  -12.8220 N   0  0  0  0  0  0  0  0  0  0  0  0
  -13.4190    2.3620  -12.2030 C   0  0  0  0  0  0  0  0  0  0  0  0
  -13.7530    1.4850  -11.1650 C   0  0  0  0  0  0  0  0  0  0  0  0
  -13.8325   -5.5247  -10.5698 H   0  0  0  0  0  0  0  0  0  0  0  0
  -13.8082   -4.2001  -11.7829 H   0  0  0  0  0  0  0  0  0  0  0  0
  -12.5103   -5.4420  -11.7829 H   0  0  0  0  0  0  0  0  0  0  0  0
  -12.7160   -3.9610   -9.2850 H   0  0  0  0  0  0  0  0  0  0  0  0
   -9.0170   -3.4267   -9.9056 H   0  0  0  0  0  0  0  0  0  0  0  0
   -7.7563   -2.1037   -8.2106 H   0  0  0  0  0  0  0  0  0  0  0  0
   -8.8620   -0.1930   -7.0537 H   0  0  0  0  0  0  0  0  0  0  0  0
  -11.2099    0.4161   -7.6113 H   0  0  0  0  0  0  0  0  0  0  0  0
  -10.7549   -0.1646  -11.0245 H   0  0  0  0  0  0  0  0  0  0  0  0
  -10.2076    1.4330  -12.8691 H   0  0  0  0  0  0  0  0  0  0  0  0
  -10.2761    3.1945  -14.6569 H   0  0  0  0  0  0  0  0  0  0  0  0
  -12.1961    5.3797  -15.6275 H   0  0  0  0  0  0  0  0  0  0  0  0
  -10.7029    7.2643  -16.5159 H   0  0  0  0  0  0  0  0  0  0  0  0
   -8.8193    7.8541  -18.0621 H   0  0  0  0  0  0  0  0  0  0  0  0
   -7.2839    6.0398  -18.8682 H   0  0  0  0  0  0  0  0  0  0  0  0
   -7.6717    3.7261  -18.1038 H   0  0  0  0  0  0  0  0  0  0  0  0
  -15.0970    3.6180  -12.6320 H   0  0  0  0  0  0  0  0  0  0  0  0
  -14.7425    1.5168  -10.6855 H   0  0  0  0  0  0  0  0  0  0  0  0
  1  2  1  0
  2  3  1  0
  3  4  2  0
  3  5  1  0
  5  6  2  0
  6  7  1  0
  7  8  2  0
  8  9  1  0
  9 10  2  0
 10 11  1  0
 11 12  1  0
 12 13  2  0
 13 14  1  0
 14 15  2  0
 15 16  1  0
 16 17  1  0
 17 18  2  0
 18 19  1  0
 19 20  2  0
 20 21  1  0
 21 22  2  0
 22 23  1  0
 23 24  2  0
 16 25  2  0
 25 26  1  0
 26 27  1  0
 27 28  2  0
 10  5  1  0
 28 12  1  0
 27 15  1  0
 24 19  1  0
  1 29  1  0
  1 30  1  0
  1 31  1  0
  2 32  1  0
  6 33  1  0
  7 34  1  0
  8 35  1  0
  9 36  1  0
 13 37  1  0
 14 38  1  0
 17 39  1  0
 18 40  1  0
 20 41  1  0
 21 42  1  0
 22 43  1  0
 23 44  1  0
 26 45  1  0
 28 46  1  0
M  END
>  <meeko>  (3) 
{"is_sidechain": false}

>  <vina_affinity_kcal_mol>  (3) 
-8.601

>  <pose_rank>  (3) 
3

$$$$

     RDKit          3D

 46 49  0  0  0  0  0  0  0  0999 V2000
  -12.9960   -4.7970  -10.6610 C   0  0  0  0  0  0  0  0  0  0  0  0
  -12.4270   -3.8130   -9.7780 N   0  0  0  0  0  0  0  0  0  0  0  0
  -11.5290   -2.8750  -10.2370 C   0  0  0  0  0  0  0  0  0  0  0  0
  -11.0650   -2.8720  -11.3710 O   0  0  0  0  0  0  0  0  0  0  0  0
  -11.0980   -1.8430   -9.2610 C   0  0  0  0  0  0  0  0  0  0  0  0
   -9.8300   -2.0320   -8.6850 C   0  0  0  0  0  0  0  0  0  0  0  0
   -9.3320   -1.1220   -7.7530 C   0  0  0  0  0  0  0  0  0  0  0  0
  -10.0930   -0.0140   -7.3950 C   0  0  0  0  0  0  0  0  0  0  0  0
  -11.3460    0.1920   -7.9760 C   0  0  0  0  0  0  0  0  0  0  0  0
  -11.8600   -0.7100   -8.9240 C   0  0  0  0  0  0  0  0  0  0  0  0
  -13.4500   -0.3110   -9.6510 S   0  0  0  0  0  0  0  0  0  0  0  0
  -12.9370    0.8440  -10.9170 C   0  0  0  0  0  0  0  0  0  0  0  0
  -11.6090    0.8280  -11.3580 C   0  0  0  0  0  0  0  0  0  0  0  0
  -11.1650    1.7170  -12.3490 C   0  0  0  0  0  0  0  0  0  0  0  0
  -12.0750    2.6380  -12.9030 C   0  0  0  0  0  0  0  0  0  0  0  0
  -12.0350    3.6690  -13.8910 C   0  0  0  0  0  0  0  0  0  0  0  0
  -10.8700    4.0330  -14.6420 C   0  0  0  0  0  0  0  0  0  0  0  0
  -10.1540    3.1870  -15.4050 C   0  0  0  0  0  0  0  0  0  0  0  0
   -8.9620    3.5740  -16.1680 C   0  0  0  0  0  0  0  0  0  0  0  0
   -8.9900    4.7130  -16.9690 C   0  0  0  0  0  0  0  0  0  0  0  0
   -7.8460    5.0610  -17.6850 C   0  0  0  0  0  0  0  0  0  0  0  0
   -6.7120    4.2660  -17.5830 C   0  0  0  0  0  0  0  0  0  0  0  0
   -6.7700    3.1510  -16.7650 C   0  0  0  0  0  0  0  0  0  0  0  0
   -7.8630    2.7890  -16.0590 N   0  0  0  0  0  0  0  0  0  0  0  0
  -13.2330    4.2590  -14.0290 N   0  0  0  0  0  0  0  0  0  0  0  0
  -14.0190    3.6170  -13.1500 N   0  0  0  0  0  0  0  0  0  0  0  0
  -13.3850    2.6370  -12.4390 C   0  0  0  0  0  0  0  0  0  0  0  0
  -13.8510    1.7670  -11.4480 C   0  0  0  0  0  0  0  0  0  0  0  0
  -13.4594   -5.5984  -10.0669 H   0  0  0  0  0  0  0  0  0  0  0  0
  -13.7592   -4.3227  -11.2954 H   0  0  0  0  0  0  0  0  0  0  0  0
  -12.2042   -5.2219  -11.2954 H   0  0  0  0  0  0  0  0  0  0  0  0
  -12.8770   -3.6520   -8.8840 H   0  0  0  0  0  0  0  0  0  0  0  0
   -9.2253   -2.9050   -8.9717 H   0  0  0  0  0  0  0  0  0  0  0  0
   -8.3409   -1.2798   -7.3026 H   0  0  0  0  0  0  0  0  0  0  0  0
   -9.7073    0.7009   -6.6533 H   0  0  0  0  0  0  0  0  0  0  0  0
  -11.9392    1.0724   -7.6879 H   0  0  0  0  0  0  0  0  0  0  0  0
  -10.9021    0.1073  -10.9211 H   0  0  0  0  0  0  0  0  0  0  0  0
  -10.1191    1.6947  -12.6889 H   0  0  0  0  0  0  0  0  0  0  0  0
  -10.5369    5.0801  -14.5910 H   0  0  0  0  0  0  0  0  0  0  0  0
  -10.4832    2.1389  -15.4602 H   0  0  0  0  0  0  0  0  0  0  0  0
   -9.8998    5.3277  -17.0354 H   0  0  0  0  0  0  0  0  0  0  0  0
   -7.8414    5.9561  -18.3243 H   0  0  0  0  0  0  0  0  0  0  0  0
   -5.7944    4.5151  -18.1362 H   0  0  0  0  0  0  0  0  0  0  0  0
   -5.8714    2.5215  -16.6851 H   0  0  0  0  0  0  0  0  0  0  0  0
  -14.9910    3.8960  -13.0830 H   0  0  0  0  0  0  0  0  0  0  0  0
  -14.8933    1.8048  -11.0985 H   0  0  0  0  0  0  0  0  0  0  0  0
  1  2  1  0
  2  3  1  0
  3  4  2  0
  3  5  1  0
  5  6  2  0
  6  7  1  0
  7  8  2  0
  8  9  1  0
  9 10  2  0
 10 11  1  0
 11 12  1  0
 12 13  2  0
 13 14  1  0
 14 15  2  0
 15 16  1  0
 16 17  1  0
 17 18  2  0
 18 19  1  0
 19 20  2  0
 20 21  1  0
 21 22  2  0
 22 23  1  0
 23 24  2  0
 16 25  2  0
 25 26  1  0
 26 27  1  0
 27 28  2  0
 10  5  1  0
 28 12  1  0
 27 15  1  0
 24 19  1  0
  1 29  1  0
  1 30  1  0
  1 31  1  0
  2 32  1  0
  6 33  1  0
  7 34  1  0
  8 35  1  0
  9 36  1  0
 13 37  1  0
 14 38  1  0
 17 39  1  0
 18 40  1  0
 20 41  1  0
 21 42  1  0
 22 43  1  0
 23 44  1  0
 26 45  1  0
 28 46  1  0
M  END
>  <meeko>  (4) 
{"is_sidechain": false}

>  <vina_affinity_kcal_mol>  (4) 
-8.503

>  <pose_rank>  (4) 
4

$$$$

     RDKit          3D

 46 49  0  0  0  0  0  0  0  0999 V2000
  -17.2630   -2.2190   -7.7120 C   0  0  0  0  0  0  0  0  0  0  0  0
  -16.1350   -2.2750   -8.6040 N   0  0  0  0  0  0  0  0  0  0  0  0
  -14.9470   -2.8550   -8.2180 C   0  0  0  0  0  0  0  0  0  0  0  0
  -14.7190   -3.2540   -7.0820 O   0  0  0  0  0  0  0  0  0  0  0  0
  -13.8940   -2.9560   -9.2600 C   0  0  0  0  0  0  0  0  0  0  0  0
  -13.8040   -4.1900   -9.9260 C   0  0  0  0  0  0  0  0  0  0  0  0
  -12.8450   -4.3910  -10.9190 C   0  0  0  0  0  0  0  0  0  0  0  0
  -11.9760   -3.3590  -11.2580 C   0  0  0  0  0  0  0  0  0  0  0  0
  -12.0710   -2.1230  -10.6150 C   0  0  0  0  0  0  0  0  0  0  0  0
  -13.0360   -1.9000   -9.6180 C   0  0  0  0  0  0  0  0  0  0  0  0
  -13.1090   -0.2560   -8.9060 S   0  0  0  0  0  0  0  0  0  0  0  0
  -12.7730    0.7320  -10.3590 C   0  0  0  0  0  0  0  0  0  0  0  0
  -11.4910    0.7100  -10.9180 C   0  0  0  0  0  0  0  0  0  0  0  0
  -11.1850    1.4700  -12.0570 C   0  0  0  0  0  0  0  0  0  0  0  0
  -12.1900    2.2670  -12.6410 C   0  0  0  0  0  0  0  0  0  0  0  0
  -12.2930    3.1510  -13.7580 C   0  0  0  0  0  0  0  0  0  0  0  0
  -11.2200    3.4550  -14.6590 C   0  0  0  0  0  0  0  0  0  0  0  0
  -11.0990    4.6040  -15.3470 C   0  0  0  0  0  0  0  0  0  0  0  0
   -9.9940    4.9020  -16.2660 C   0  0  0  0  0  0  0  0  0  0  0  0
   -9.8810    6.1700  -16.8290 C   0  0  0  0  0  0  0  0  0  0  0  0
   -8.8240    6.4290  -17.6990 C   0  0  0  0  0  0  0  0  0  0  0  0
   -7.9130    5.4190  -17.9830 C   0  0  0  0  0  0  0  0  0  0  0  0
   -8.0990    4.1870  -17.3800 C   0  0  0  0  0  0  0  0  0  0  0  0
   -9.1140    3.9070  -16.5330 N   0  0  0  0  0  0  0  0  0  0  0  0
  -13.5280    3.6660  -13.8610 N   0  0  0  0  0  0  0  0  0  0  0  0
  -14.1980    3.1200  -12.8330 N   0  0  0  0  0  0  0  0  0  0  0  0
  -13.4520    2.2760  -12.0600 C   0  0  0  0  0  0  0  0  0  0  0  0
  -13.7800    1.5330  -10.9200 C   0  0  0  0  0  0  0  0  0  0  0  0
  -16.9084   -2.2366   -6.6709 H   0  0  0  0  0  0  0  0  0  0  0  0
  -17.8269   -1.2918   -7.8917 H   0  0  0  0  0  0  0  0  0  0  0  0
  -17.9159   -3.0858   -7.8917 H   0  0  0  0  0  0  0  0  0  0  0  0
  -16.2950   -2.1180   -9.5920 H   0  0  0  0  0  0  0  0  0  0  0  0
  -14.4952   -5.0040   -9.6623 H   0  0  0  0  0  0  0  0  0  0  0  0
  -12.7763   -5.3617  -11.4319 H   0  0  0  0  0  0  0  0  0  0  0  0
  -11.2125   -3.5168  -12.0340 H   0  0  0  0  0  0  0  0  0  0  0  0
  -11.3809   -1.3127  -10.8928 H   0  0  0  0  0  0  0  0  0  0  0  0
  -10.7103    0.0869  -10.4573 H   0  0  0  0  0  0  0  0  0  0  0  0
  -10.1736    1.4441  -12.4887 H   0  0  0  0  0  0  0  0  0  0  0  0
  -10.4390    2.6929  -14.7975 H   0  0  0  0  0  0  0  0  0  0  0  0
  -11.8777    5.3693  -15.2125 H   0  0  0  0  0  0  0  0  0  0  0  0
  -10.6142    6.9547  -16.5909 H   0  0  0  0  0  0  0  0  0  0  0  0
   -8.7118    7.4231  -18.1564 H   0  0  0  0  0  0  0  0  0  0  0  0
   -7.0691    5.5933  -18.6667 H   0  0  0  0  0  0  0  0  0  0  0  0
   -7.3771    3.3878  -17.6038 H   0  0  0  0  0  0  0  0  0  0  0  0
  -15.1730    3.3640  -12.7120 H   0  0  0  0  0  0  0  0  0  0  0  0
  -14.7877    1.5752  -10.4808 H   0  0  0  0  0  0  0  0  0  0  0  0
  1  2  1  0
  2  3  1  0
  3  4  2  0
  3  5  1  0
  5  6  2  0
  6  7  1  0
  7  8  2  0
  8  9  1  0
  9 10  2  0
 10 11  1  0
 11 12  1  0
 12 13  2  0
 13 14  1  0
 14 15  2  0
 15 16  1  0
 16 17  1  0
 17 18  2  0
 18 19  1  0
 19 20  2  0
 20 21  1  0
 21 22  2  0
 22 23  1  0
 23 24  2  0
 16 25  2  0
 25 26  1  0
 26 27  1  0
 27 28  2  0
 10  5  1  0
 28 12  1  0
 27 15  1  0
 24 19  1  0
  1 29  1  0
  1 30  1  0
  1 31  1  0
  2 32  1  0
  6 33  1  0
  7 34  1  0
  8 35  1  0
  9 36  1  0
 13 37  1  0
 14 38  1  0
 17 39  1  0
 18 40  1  0
 20 41  1  0
 21 42  1  0
 22 43  1  0
 23 44  1  0
 26 45  1  0
 28 46  1  0
M  END
>  <meeko>  (5) 
{"is_sidechain": false}

>  <vina_affinity_kcal_mol>  (5) 
-8.395

>  <pose_rank>  (5) 
5

$$$$

     RDKit          3D

 46 49  0  0  0  0  0  0  0  0999 V2000
  -10.1220    7.5810  -20.7740 C   0  0  0  0  0  0  0  0  0  0  0  0
  -10.1230    6.6230  -19.6990 N   0  0  0  0  0  0  0  0  0  0  0  0
   -9.7880    6.9900  -18.4150 C   0  0  0  0  0  0  0  0  0  0  0  0
   -9.3610    8.0980  -18.1100 O   0  0  0  0  0  0  0  0  0  0  0  0
   -9.9350    5.9450  -17.3710 C   0  0  0  0  0  0  0  0  0  0  0  0
  -11.1430    5.9580  -16.6530 C   0  0  0  0  0  0  0  0  0  0  0  0
  -11.3810    5.0210  -15.6480 C   0  0  0  0  0  0  0  0  0  0  0  0
  -10.4170    4.0610  -15.3580 C   0  0  0  0  0  0  0  0  0  0  0  0
   -9.2210    4.0280  -16.0790 C   0  0  0  0  0  0  0  0  0  0  0  0
   -8.9680    4.9590  -17.1010 C   0  0  0  0  0  0  0  0  0  0  0  0
   -7.4290    4.7830  -18.0020 S   0  0  0  0  0  0  0  0  0  0  0  0
   -6.8660    3.2110  -17.3610 C   0  0  0  0  0  0  0  0  0  0  0  0
   -7.1020    2.0480  -18.1020 C   0  0  0  0  0  0  0  0  0  0  0  0
   -6.6770    0.7950  -17.6360 C   0  0  0  0  0  0  0  0  0  0  0  0
   -6.0040    0.7130  -16.4010 C   0  0  0  0  0  0  0  0  0  0  0  0
   -5.4290   -0.3200  -15.6000 C   0  0  0  0  0  0  0  0  0  0  0  0
   -5.4160   -1.7110  -15.9490 C   0  0  0  0  0  0  0  0  0  0  0  0
   -5.2100   -2.7170  -15.0810 C   0  0  0  0  0  0  0  0  0  0  0  0
   -5.1990   -4.1360  -15.4530 C   0  0  0  0  0  0  0  0  0  0  0  0
   -4.0430   -4.7090  -15.9770 C   0  0  0  0  0  0  0  0  0  0  0  0
   -4.0580   -6.0590  -16.3220 C   0  0  0  0  0  0  0  0  0  0  0  0
   -5.2200   -6.7960  -16.1370 C   0  0  0  0  0  0  0  0  0  0  0  0
   -6.3250   -6.1490  -15.6110 C   0  0  0  0  0  0  0  0  0  0  0  0
   -6.3410   -4.8430  -15.2660 N   0  0  0  0  0  0  0  0  0  0  0  0
   -4.8980    0.1760  -14.4710 N   0  0  0  0  0  0  0  0  0  0  0  0
   -5.1280    1.4960  -14.5520 N   0  0  0  0  0  0  0  0  0  0  0  0
   -5.7920    1.8830  -15.6820 C   0  0  0  0  0  0  0  0  0  0  0  0
   -6.2110    3.1440  -16.1210 C   0  0  0  0  0  0  0  0  0  0  0  0
  -10.1209    8.5992  -20.3577 H   0  0  0  0  0  0  0  0  0  0  0  0
   -9.2240    7.4369  -21.3927 H   0  0  0  0  0  0  0  0  0  0  0  0
  -11.0203    7.4388  -21.3927 H   0  0  0  0  0  0  0  0  0  0  0  0
  -10.6130    5.7470  -19.8370 H   0  0  0  0  0  0  0  0  0  0  0  0
  -11.9075    6.7139  -16.8858 H   0  0  0  0  0  0  0  0  0  0  0  0
  -12.3270    5.0409  -15.0870 H   0  0  0  0  0  0  0  0  0  0  0  0
  -10.5969    3.3263  -14.5593 H   0  0  0  0  0  0  0  0  0  0  0  0
   -8.4667    3.2627  -15.8436 H   0  0  0  0  0  0  0  0  0  0  0  0
   -7.6290    2.1172  -19.0650 H   0  0  0  0  0  0  0  0  0  0  0  0
   -6.8669   -0.1126  -18.2277 H   0  0  0  0  0  0  0  0  0  0  0  0
   -5.5870   -1.9740  -17.0033 H   0  0  0  0  0  0  0  0  0  0  0  0
   -5.0389   -2.4597  -14.0253 H   0  0  0  0  0  0  0  0  0  0  0  0
   -3.1335   -4.1062  -16.1162 H   0  0  0  0  0  0  0  0  0  0  0  0
   -3.1579   -6.5362  -16.7369 H   0  0  0  0  0  0  0  0  0  0  0  0
   -5.2614   -7.8631  -16.4008 H   0  0  0  0  0  0  0  0  0  0  0  0
   -7.2454   -6.7335  -15.4652 H   0  0  0  0  0  0  0  0  0  0  0  0
   -4.8010    2.0870  -13.7970 H   0  0  0  0  0  0  0  0  0  0  0  0
   -6.0341    4.0471  -15.5183 H   0  0  0  0  0  0  0  0  0  0  0  0
  1  2  1  0
  2  3  1  0
  3  4  2  0
  3  5  1  0
  5  6  2  0
  6  7  1  0
  7  8  2  0
  8  9  1  0
  9 10  2  0
 10 11  1  0
 11 12  1  0
 12 13  2  0
 13 14  1  0
 14 15  2  0
 15 16  1  0
 16 17  1  0
 17 18  2  0
 18 19  1  0
 19 20  2  0
 20 21  1  0
 21 22  2  0
 22 23  1  0
 23 24  2  0
 16 25  2  0
 25 26  1  0
 26 27  1  0
 27 28  2  0
 10  5  1  0
 28 12  1  0
 27 15  1  0
 24 19  1  0
  1 29  1  0
  1 30  1  0
  1 31  1  0
  2 32  1  0
  6 33  1  0
  7 34  1  0
  8 35  1  0
  9 36  1  0
 13 37  1  0
 14 38  1  0
 17 39  1  0
 18 40  1  0
 20 41  1  0
 21 42  1  0
 22 43  1  0
 23 44  1  0
 26 45  1  0
 28 46  1  0
M  END
>  <meeko>  (6) 
{"is_sidechain": false}

>  <vina_affinity_kcal_mol>  (6) 
-8.263

>  <pose_rank>  (6) 
6

$$$$

     RDKit          3D

 46 49  0  0  0  0  0  0  0  0999 V2000
   -9.9580    0.2630   -6.7400 C   0  0  0  0  0  0  0  0  0  0  0  0
  -10.6990   -0.6820   -7.5350 N   0  0  0  0  0  0  0  0  0  0  0  0
  -11.9320   -1.1440   -7.1300 C   0  0  0  0  0  0  0  0  0  0  0  0
  -12.4320   -0.8910   -6.0410 O   0  0  0  0  0  0  0  0  0  0  0  0
  -12.6510   -2.0250   -8.0850 C   0  0  0  0  0  0  0  0  0  0  0  0
  -12.2980   -3.3860   -8.0510 C   0  0  0  0  0  0  0  0  0  0  0  0
  -12.9110   -4.2980   -8.9100 C   0  0  0  0  0  0  0  0  0  0  0  0
  -13.8840   -3.8590   -9.8020 C   0  0  0  0  0  0  0  0  0  0  0  0
  -14.2540   -2.5130   -9.8290 C   0  0  0  0  0  0  0  0  0  0  0  0
  -13.6530   -1.5810   -8.9650 C   0  0  0  0  0  0  0  0  0  0  0  0
  -14.2520    0.1070   -9.0420 S   0  0  0  0  0  0  0  0  0  0  0  0
  -13.2870    0.7220  -10.4170 C   0  0  0  0  0  0  0  0  0  0  0  0
  -13.8130    1.7400  -11.2180 C   0  0  0  0  0  0  0  0  0  0  0  0
  -13.0890    2.2520  -12.3060 C   0  0  0  0  0  0  0  0  0  0  0  0
  -11.8140    1.7250  -12.5910 C   0  0  0  0  0  0  0  0  0  0  0  0
  -10.7920    1.9540  -13.5610 C   0  0  0  0  0  0  0  0  0  0  0  0
  -10.8680    2.9260  -14.6130 C   0  0  0  0  0  0  0  0  0  0  0  0
   -9.8060    3.4480  -15.2520 C   0  0  0  0  0  0  0  0  0  0  0  0
   -9.9000    4.4430  -16.3270 C   0  0  0  0  0  0  0  0  0  0  0  0
  -10.8580    5.4510  -16.2600 C   0  0  0  0  0  0  0  0  0  0  0  0
  -10.9270    6.3840  -17.2920 C   0  0  0  0  0  0  0  0  0  0  0  0
  -10.0430    6.2860  -18.3590 C   0  0  0  0  0  0  0  0  0  0  0  0
   -9.1220    5.2530  -18.3470 C   0  0  0  0  0  0  0  0  0  0  0  0
   -9.0300    4.3340  -17.3610 N   0  0  0  0  0  0  0  0  0  0  0  0
   -9.7420    1.1400  -13.3660 N   0  0  0  0  0  0  0  0  0  0  0  0
  -10.0880    0.4100  -12.2930 N   0  0  0  0  0  0  0  0  0  0  0  0
  -11.3210    0.7080  -11.7840 C   0  0  0  0  0  0  0  0  0  0  0  0
  -12.0250    0.1760  -10.6980 C   0  0  0  0  0  0  0  0  0  0  0  0
  -10.1226    0.0531   -5.6728 H   0  0  0  0  0  0  0  0  0  0  0  0
   -8.8859    0.1746   -6.9700 H   0  0  0  0  0  0  0  0  0  0  0  0
  -10.2995    1.2830   -6.9700 H   0  0  0  0  0  0  0  0  0  0  0  0
  -10.4320   -0.8080   -8.5040 H   0  0  0  0  0  0  0  0  0  0  0  0
  -11.5327   -3.7338   -7.3416 H   0  0  0  0  0  0  0  0  0  0  0  0
  -12.6262   -5.3601   -8.8822 H   0  0  0  0  0  0  0  0  0  0  0  0
  -14.3628   -4.5737  -10.4874 H   0  0  0  0  0  0  0  0  0  0  0  0
  -15.0266   -2.1771  -10.5363 H   0  0  0  0  0  0  0  0  0  0  0  0
  -14.8100    2.1461  -10.9920 H   0  0  0  0  0  0  0  0  0  0  0  0
  -13.5118    3.0546  -12.9282 H   0  0  0  0  0  0  0  0  0  0  0  0
  -11.8672    3.2693  -14.9193 H   0  0  0  0  0  0  0  0  0  0  0  0
   -8.8043    3.1081  -14.9502 H   0  0  0  0  0  0  0  0  0  0  0  0
  -11.5490    5.5097  -15.4062 H   0  0  0  0  0  0  0  0  0  0  0  0
  -11.6743    7.1906  -17.2623 H   0  0  0  0  0  0  0  0  0  0  0  0
  -10.0740    7.0077  -19.1885 H   0  0  0  0  0  0  0  0  0  0  0  0
   -8.4220    5.1755  -19.1920 H   0  0  0  0  0  0  0  0  0  0  0  0
   -9.4320   -0.2820  -11.9520 H   0  0  0  0  0  0  0  0  0  0  0  0
  -11.6058   -0.6381  -10.0885 H   0  0  0  0  0  0  0  0  0  0  0  0
  1  2  1  0
  2  3  1  0
  3  4  2  0
  3  5  1  0
  5  6  2  0
  6  7  1  0
  7  8  2  0
  8  9  1  0
  9 10  2  0
 10 11  1  0
 11 12  1  0
 12 13  2  0
 13 14  1  0
 14 15  2  0
 15 16  1  0
 16 17  1  0
 17 18  2  0
 18 19  1  0
 19 20  2  0
 20 21  1  0
 21 22  2  0
 22 23  1  0
 23 24  2  0
 16 25  2  0
 25 26  1  0
 26 27  1  0
 27 28  2  0
 10  5  1  0
 28 12  1  0
 27 15  1  0
 24 19  1  0
  1 29  1  0
  1 30  1  0
  1 31  1  0
  2 32  1  0
  6 33  1  0
  7 34  1  0
  8 35  1  0
  9 36  1  0
 13 37  1  0
 14 38  1  0
 17 39  1  0
 18 40  1  0
 20 41  1  0
 21 42  1  0
 22 43  1  0
 23 44  1  0
 26 45  1  0
 28 46  1  0
M  END
>  <meeko>  (7) 
{"is_sidechain": false}

>  <vina_affinity_kcal_mol>  (7) 
-8.135

>  <pose_rank>  (7) 
7

$$$$

     RDKit          3D

 46 49  0  0  0  0  0  0  0  0999 V2000
   -7.8540   -2.2930  -10.0090 C   0  0  0  0  0  0  0  0  0  0  0  0
   -8.7280   -1.3990   -9.2960 N   0  0  0  0  0  0  0  0  0  0  0  0
   -9.6330   -1.8700   -8.3710 C   0  0  0  0  0  0  0  0  0  0  0  0
   -9.8450   -3.0600   -8.1680 O   0  0  0  0  0  0  0  0  0  0  0  0
  -10.4000   -0.8460   -7.6180 C   0  0  0  0  0  0  0  0  0  0  0  0
   -9.6910   -0.1590   -6.6170 C   0  0  0  0  0  0  0  0  0  0  0  0
  -10.3190    0.8200   -5.8490 C   0  0  0  0  0  0  0  0  0  0  0  0
  -11.6570    1.1240   -6.0780 C   0  0  0  0  0  0  0  0  0  0  0  0
  -12.3640    0.4600   -7.0830 C   0  0  0  0  0  0  0  0  0  0  0  0
  -11.7450   -0.5230   -7.8730 C   0  0  0  0  0  0  0  0  0  0  0  0
  -12.7300   -1.2630   -9.1750 S   0  0  0  0  0  0  0  0  0  0  0  0
  -12.5440   -0.0260  -10.4540 C   0  0  0  0  0  0  0  0  0  0  0  0
  -11.3490    0.0330  -11.1780 C   0  0  0  0  0  0  0  0  0  0  0  0
  -11.1620    0.9870  -12.1890 C   0  0  0  0  0  0  0  0  0  0  0  0
  -12.1980    1.8990  -12.4730 C   0  0  0  0  0  0  0  0  0  0  0  0
  -12.4070    2.9800  -13.3840 C   0  0  0  0  0  0  0  0  0  0  0  0
  -11.4490    3.4270  -14.3520 C   0  0  0  0  0  0  0  0  0  0  0  0
  -11.4740    4.6280  -14.9570 C   0  0  0  0  0  0  0  0  0  0  0  0
  -10.4860    5.0720  -15.9470 C   0  0  0  0  0  0  0  0  0  0  0  0
  -10.6080    6.3280  -16.5350 C   0  0  0  0  0  0  0  0  0  0  0  0
   -9.6580    6.7280  -17.4720 C   0  0  0  0  0  0  0  0  0  0  0  0
   -8.6180    5.8660  -17.7970 C   0  0  0  0  0  0  0  0  0  0  0  0
   -8.5710    4.6350  -17.1660 C   0  0  0  0  0  0  0  0  0  0  0  0
   -9.4770    4.2210  -16.2530 N   0  0  0  0  0  0  0  0  0  0  0  0
  -13.6210    3.5290  -13.2180 N   0  0  0  0  0  0  0  0  0  0  0  0
  -14.1730    2.8130  -12.2260 N   0  0  0  0  0  0  0  0  0  0  0  0
  -13.3700    1.8230  -11.7320 C   0  0  0  0  0  0  0  0  0  0  0  0
  -13.5790    0.8860  -10.7140 C   0  0  0  0  0  0  0  0  0  0  0  0
   -7.2722   -2.8881   -9.2898 H   0  0  0  0  0  0  0  0  0  0  0  0
   -8.4531   -2.9649  -10.6411 H   0  0  0  0  0  0  0  0  0  0  0  0
   -7.1687   -1.7092  -10.6411 H   0  0  0  0  0  0  0  0  0  0  0  0
   -8.5030   -0.4110   -9.2890 H   0  0  0  0  0  0  0  0  0  0  0  0
   -8.6318   -0.3961   -6.4384 H   0  0  0  0  0  0  0  0  0  0  0  0
   -9.7587    1.3502   -5.0648 H   0  0  0  0  0  0  0  0  0  0  0  0
  -12.1589    1.8884   -5.4667 H   0  0  0  0  0  0  0  0  0  0  0  0
  -13.4207    0.7103   -7.2584 H   0  0  0  0  0  0  0  0  0  0  0  0
  -10.5429   -0.6801  -10.9510 H   0  0  0  0  0  0  0  0  0  0  0  0
  -10.2184    1.0228  -12.7532 H   0  0  0  0  0  0  0  0  0  0  0  0
  -10.6344    2.7379  -14.6194 H   0  0  0  0  0  0  0  0  0  0  0  0
  -12.2863    5.3211  -14.6930 H   0  0  0  0  0  0  0  0  0  0  0  0
  -11.4409    6.9936  -16.2641 H   0  0  0  0  0  0  0  0  0  0  0  0
   -9.7305    7.7162  -17.9497 H   0  0  0  0  0  0  0  0  0  0  0  0
   -7.8541    6.1535  -18.5344 H   0  0  0  0  0  0  0  0  0  0  0  0
   -7.7470    3.9531  -17.4231 H   0  0  0  0  0  0  0  0  0  0  0  0
  -15.1120    3.0490  -11.9290 H   0  0  0  0  0  0  0  0  0  0  0  0
  -14.5172    0.8649  -10.1402 H   0  0  0  0  0  0  0  0  0  0  0  0
  1  2  1  0
  2  3  1  0
  3  4  2  0
  3  5  1  0
  5  6  2  0
  6  7  1  0
  7  8  2  0
  8  9  1  0
  9 10  2  0
 10 11  1  0
 11 12  1  0
 12 13  2  0
 13 14  1  0
 14 15  2  0
 15 16  1  0
 16 17  1  0
 17 18  2  0
 18 19  1  0
 19 20  2  0
 20 21  1  0
 21 22  2  0
 22 23  1  0
 23 24  2  0
 16 25  2  0
 25 26  1  0
 26 27  1  0
 27 28  2  0
 10  5  1  0
 28 12  1  0
 27 15  1  0
 24 19  1  0
  1 29  1  0
  1 30  1  0
  1 31  1  0
  2 32  1  0
  6 33  1  0
  7 34  1  0
  8 35  1  0
  9 36  1  0
 13 37  1  0
 14 38  1  0
 17 39  1  0
 18 40  1  0
 20 41  1  0
 21 42  1  0
 22 43  1  0
 23 44  1  0
 26 45  1  0
 28 46  1  0
M  END
>  <meeko>  (8) 
{"is_sidechain": false}

>  <vina_affinity_kcal_mol>  (8) 
-8.046

>  <pose_rank>  (8) 
8

$$$$

     RDKit          3D

 46 49  0  0  0  0  0  0  0  0999 V2000
   -2.3960    0.6150  -16.8990 C   0  0  0  0  0  0  0  0  0  0  0  0
   -3.3470    0.3670  -15.8480 N   0  0  0  0  0  0  0  0  0  0  0  0
   -3.5100   -0.8920  -15.3140 C   0  0  0  0  0  0  0  0  0  0  0  0
   -2.9630   -1.8960  -15.7540 O   0  0  0  0  0  0  0  0  0  0  0  0
   -4.4360   -1.0030  -14.1590 C   0  0  0  0  0  0  0  0  0  0  0  0
   -3.8810   -0.7260  -12.8970 C   0  0  0  0  0  0  0  0  0  0  0  0
   -4.6640   -0.8060  -11.7460 C   0  0  0  0  0  0  0  0  0  0  0  0
   -6.0070   -1.1550  -11.8470 C   0  0  0  0  0  0  0  0  0  0  0  0
   -6.5710   -1.4130  -13.0990 C   0  0  0  0  0  0  0  0  0  0  0  0
   -5.7990   -1.3290  -14.2700 C   0  0  0  0  0  0  0  0  0  0  0  0
   -6.6430   -1.6180  -15.8250 S   0  0  0  0  0  0  0  0  0  0  0  0
   -7.3540   -0.0010  -16.1040 C   0  0  0  0  0  0  0  0  0  0  0  0
   -6.8460    0.7990  -17.1330 C   0  0  0  0  0  0  0  0  0  0  0  0
   -7.3750    2.0740  -17.3860 C   0  0  0  0  0  0  0  0  0  0  0  0
   -8.4320    2.5510  -16.5860 C   0  0  0  0  0  0  0  0  0  0  0  0
   -9.2230    3.7380  -16.5130 C   0  0  0  0  0  0  0  0  0  0  0  0
   -9.0790    4.8690  -17.3820 C   0  0  0  0  0  0  0  0  0  0  0  0
  -10.0710    5.4050  -18.1150 C   0  0  0  0  0  0  0  0  0  0  0  0
   -9.9080    6.5630  -19.0000 C   0  0  0  0  0  0  0  0  0  0  0  0
   -9.5310    7.7950  -18.4720 C   0  0  0  0  0  0  0  0  0  0  0  0
   -9.3820    8.8800  -19.3330 C   0  0  0  0  0  0  0  0  0  0  0  0
   -9.6140    8.7070  -20.6910 C   0  0  0  0  0  0  0  0  0  0  0  0
   -9.9860    7.4500  -21.1340 C   0  0  0  0  0  0  0  0  0  0  0  0
  -10.1370    6.3790  -20.3240 N   0  0  0  0  0  0  0  0  0  0  0  0
  -10.1250    3.6620  -15.5220 N   0  0  0  0  0  0  0  0  0  0  0  0
   -9.9140    2.4530  -14.9770 N   0  0  0  0  0  0  0  0  0  0  0  0
   -8.9100    1.7380  -15.5660 C   0  0  0  0  0  0  0  0  0  0  0  0
   -8.3960    0.4660  -15.2880 C   0  0  0  0  0  0  0  0  0  0  0  0
   -1.4207    0.8693  -16.4585 H   0  0  0  0  0  0  0  0  0  0  0  0
   -2.2935   -0.2865  -17.5210 H   0  0  0  0  0  0  0  0  0  0  0  0
   -2.7468    1.4517  -17.5210 H   0  0  0  0  0  0  0  0  0  0  0  0
   -3.7080    1.1600  -15.3310 H   0  0  0  0  0  0  0  0  0  0  0  0
   -2.8208   -0.4440  -12.8172 H   0  0  0  0  0  0  0  0  0  0  0  0
   -4.2214   -0.5939  -10.7616 H   0  0  0  0  0  0  0  0  0  0  0  0
   -6.6254   -1.2279  -10.9402 H   0  0  0  0  0  0  0  0  0  0  0  0
   -7.6344   -1.6857  -13.1689 H   0  0  0  0  0  0  0  0  0  0  0  0
   -6.0192    0.4229  -17.7534 H   0  0  0  0  0  0  0  0  0  0  0  0
   -6.9692    2.6936  -18.1993 H   0  0  0  0  0  0  0  0  0  0  0  0
   -8.0841    5.3325  -17.4546 H   0  0  0  0  0  0  0  0  0  0  0  0
  -11.0681    4.9456  -18.0464 H   0  0  0  0  0  0  0  0  0  0  0  0
   -9.3537    7.9097  -17.3925 H   0  0  0  0  0  0  0  0  0  0  0  0
   -9.0837    9.8636  -18.9411 H   0  0  0  0  0  0  0  0  0  0  0  0
   -9.5052    9.5454  -21.3947 H   0  0  0  0  0  0  0  0  0  0  0  0
  -10.1698    7.3145  -22.2100 H   0  0  0  0  0  0  0  0  0  0  0  0
  -10.4980    2.1700  -14.1990 H   0  0  0  0  0  0  0  0  0  0  0  0
   -8.7930   -0.1434  -14.4627 H   0  0  0  0  0  0  0  0  0  0  0  0
  1  2  1  0
  2  3  1  0
  3  4  2  0
  3  5  1  0
  5  6  2  0
  6  7  1  0
  7  8  2  0
  8  9  1  0
  9 10  2  0
 10 11  1  0
 11 12  1  0
 12 13  2  0
 13 14  1  0
 14 15  2  0
 15 16  1  0
 16 17  1  0
 17 18  2  0
 18 19  1  0
 19 20  2  0
 20 21  1  0
 21 22  2  0
 22 23  1  0
 23 24  2  0
 16 25  2  0
 25 26  1  0
 26 27  1  0
 27 28  2  0
 10  5  1  0
 28 12  1  0
 27 15  1  0
 24 19  1  0
  1 29  1  0
  1 30  1  0
  1 31  1  0
  2 32  1  0
  6 33  1  0
  7 34  1  0
  8 35  1  0
  9 36  1  0
 13 37  1  0
 14 38  1  0
 17 39  1  0
 18 40  1  0
 20 41  1  0
 21 42  1  0
 22 43  1  0
 23 44  1  0
 26 45  1  0
 28 46  1  0
M  END
>  <meeko>  (9) 
{"is_sidechain": false}

>  <vina_affinity_kcal_mol>  (9) 
-7.927

>  <pose_rank>  (9) 
9

$$$$

     RDKit          3D

 46 49  0  0  0  0  0  0  0  0999 V2000
  -12.8810   -4.3980  -10.9250 C   0  0  0  0  0  0  0  0  0  0  0  0
  -12.4660   -3.2890  -10.1060 N   0  0  0  0  0  0  0  0  0  0  0  0
  -13.1620   -2.9400   -8.9710 C   0  0  0  0  0  0  0  0  0  0  0  0
  -14.2240   -3.4510   -8.6370 O   0  0  0  0  0  0  0  0  0  0  0  0
  -12.5750   -1.8540   -8.1460 C   0  0  0  0  0  0  0  0  0  0  0  0
  -11.5330   -2.2330   -7.2810 C   0  0  0  0  0  0  0  0  0  0  0  0
  -10.9160   -1.2900   -6.4600 C   0  0  0  0  0  0  0  0  0  0  0  0
  -11.3290    0.0380   -6.5010 C   0  0  0  0  0  0  0  0  0  0  0  0
  -12.3500    0.4270   -7.3720 C   0  0  0  0  0  0  0  0  0  0  0  0
  -12.9780   -0.5080   -8.2130 C   0  0  0  0  0  0  0  0  0  0  0  0
  -14.2300    0.1150   -9.3340 S   0  0  0  0  0  0  0  0  0  0  0  0
  -13.1910    0.7850  -10.6270 C   0  0  0  0  0  0  0  0  0  0  0  0
  -13.6620    1.8550  -11.3950 C   0  0  0  0  0  0  0  0  0  0  0  0
  -12.8800    2.4100  -12.4190 C   0  0  0  0  0  0  0  0  0  0  0  0
  -11.6010    1.8760  -12.6730 C   0  0  0  0  0  0  0  0  0  0  0  0
  -10.5300    2.1380  -13.5810 C   0  0  0  0  0  0  0  0  0  0  0  0
  -10.5410    3.1660  -14.5800 C   0  0  0  0  0  0  0  0  0  0  0  0
   -9.5130    3.4500  -15.3990 C   0  0  0  0  0  0  0  0  0  0  0  0
   -9.5380    4.5060  -16.4170 C   0  0  0  0  0  0  0  0  0  0  0  0
  -10.5860    5.4230  -16.4420 C   0  0  0  0  0  0  0  0  0  0  0  0
  -10.5880    6.4170  -17.4180 C   0  0  0  0  0  0  0  0  0  0  0  0
   -9.5500    6.4680  -18.3400 C   0  0  0  0  0  0  0  0  0  0  0  0
   -8.5480    5.5180  -18.2450 C   0  0  0  0  0  0  0  0  0  0  0  0
   -8.5180    4.5440  -17.3090 N   0  0  0  0  0  0  0  0  0  0  0  0
   -9.5050    1.2940  -13.3820 N   0  0  0  0  0  0  0  0  0  0  0  0
   -9.9130    0.5150  -12.3680 N   0  0  0  0  0  0  0  0  0  0  0  0
  -11.1630    0.8080  -11.9000 C   0  0  0  0  0  0  0  0  0  0  0  0
  -11.9260    0.2310  -10.8790 C   0  0  0  0  0  0  0  0  0  0  0  0
  -13.1935   -5.2330  -10.2806 H   0  0  0  0  0  0  0  0  0  0  0  0
  -13.7245   -4.0894  -11.5601 H   0  0  0  0  0  0  0  0  0  0  0  0
  -12.0421   -4.7189  -11.5601 H   0  0  0  0  0  0  0  0  0  0  0  0
  -11.5250   -2.9310  -10.2240 H   0  0  0  0  0  0  0  0  0  0  0  0
  -11.2021   -3.2817   -7.2519 H   0  0  0  0  0  0  0  0  0  0  0  0
  -10.1053   -1.5950   -5.7820 H   0  0  0  0  0  0  0  0  0  0  0  0
  -10.8513    0.7824   -5.8471 H   0  0  0  0  0  0  0  0  0  0  0  0
  -12.6669    1.4800   -7.4000 H   0  0  0  0  0  0  0  0  0  0  0  0
  -14.6614    2.2678  -11.1929 H   0  0  0  0  0  0  0  0  0  0  0  0
  -13.2606    3.2517  -13.0163 H   0  0  0  0  0  0  0  0  0  0  0  0
  -11.4570    3.7661  -14.6842 H   0  0  0  0  0  0  0  0  0  0  0  0
   -8.5949    2.8524  -15.2993 H   0  0  0  0  0  0  0  0  0  0  0  0
  -11.3988    5.3633  -15.7032 H   0  0  0  0  0  0  0  0  0  0  0  0
  -11.4034    7.1542  -17.4583 H   0  0  0  0  0  0  0  0  0  0  0  0
   -9.5252    7.2407  -19.1225 H   0  0  0  0  0  0  0  0  0  0  0  0
   -7.7266    5.5583  -18.9755 H   0  0  0  0  0  0  0  0  0  0  0  0
   -9.2840   -0.2070  -12.0350 H   0  0  0  0  0  0  0  0  0  0  0  0
  -11.5495   -0.6230  -10.2968 H   0  0  0  0  0  0  0  0  0  0  0  0
  1  2  1  0
  2  3  1  0
  3  4  2  0
  3  5  1  0
  5  6  2  0
  6  7  1  0
  7  8  2  0
  8  9  1  0
  9 10  2  0
 10 11  1  0
 11 12  1  0
 12 13  2  0
 13 14  1  0
 14 15  2  0
 15 16  1  0
 16 17  1  0
 17 18  2  0
 18 19  1  0
 19 20  2  0
 20 21  1  0
 21 22  2  0
 22 23  1  0
 23 24  2  0
 16 25  2  0
 25 26  1  0
 26 27  1  0
 27 28  2  0
 10  5  1  0
 28 12  1  0
 27 15  1  0
 24 19  1  0
  1 29  1  0
  1 30  1  0
  1 31  1  0
  2 32  1  0
  6 33  1  0
  7 34  1  0
  8 35  1  0
  9 36  1  0
 13 37  1  0
 14 38  1  0
 17 39  1  0
 18 40  1  0
 20 41  1  0
 21 42  1  0
 22 43  1  0
 23 44  1  0
 26 45  1  0
 28 46  1  0
M  END
>  <meeko>  (10) 
{"is_sidechain": false}

>  <vina_affinity_kcal_mol>  (10) 
-7.92

>  <pose_rank>  (10) 
10

$$$$
