
     RDKit          3D

 54 57  0  0  0  0  0  0  0  0999 V2000
  -39.7410  160.2960   -5.7330 C   0  0  0  0  0  0  0  0  0  0  0  0
  -38.5240  160.2680   -4.8210 C   0  0  0  0  0  0  0  0  0  0  0  0
  -38.7820  160.9120   -3.5340 N   0  0  0  0  0  0  0  0  0  0  0  0
  -39.1850  160.0910   -2.4780 C   0  0  0  0  0  0  0  0  0  0  0  0
  -39.3630  158.8780   -2.5970 O   0  0  0  0  0  0  0  0  0  0  0  0
  -39.4170  160.7390   -1.1470 C   0  0  0  0  0  0  0  0  0  0  0  0
  -39.7810  159.9170    0.0230 C   0  0  0  0  0  0  0  0  0  0  0  0
  -38.7790  159.1170    0.6060 C   0  0  0  0  0  0  0  0  0  0  0  0
  -39.0630  158.2910    1.7000 C   0  0  0  0  0  0  0  0  0  0  0  0
  -38.0040  157.5230    2.2350 N   0  0  0  0  0  0  0  0  0  0  0  0
  -37.3950  157.7680    3.4590 C   0  0  0  0  0  0  0  0  0  0  0  0
  -37.8470  158.5170    4.3150 O   0  0  0  0  0  0  0  0  0  0  0  0
  -36.2470  157.0000    3.5710 N   0  0  0  0  0  0  0  0  0  0  0  0
  -35.4160  156.8560    4.6990 C   0  0  0  0  0  0  0  0  0  0  0  0
  -34.1220  157.3700    4.7820 C   0  0  0  0  0  0  0  0  0  0  0  0
  -33.3630  157.1960    5.9450 C   0  0  0  0  0  0  0  0  0  0  0  0
  -33.8960  156.5100    7.0340 C   0  0  0  0  0  0  0  0  0  0  0  0
  -35.1880  155.9980    6.9640 C   0  0  0  0  0  0  0  0  0  0  0  0
  -35.9450  156.1730    5.8030 C   0  0  0  0  0  0  0  0  0  0  0  0
  -40.3540  158.3100    2.2410 C   0  0  0  0  0  0  0  0  0  0  0  0
  -40.6480  157.6400    3.3640 F   0  0  0  0  0  0  0  0  0  0  0  0
  -41.3550  159.1020    1.6830 C   0  0  0  0  0  0  0  0  0  0  0  0
  -41.0730  159.9000    0.5750 C   0  0  0  0  0  0  0  0  0  0  0  0
  -42.4840  160.9680   -0.1180 Br  0  0  0  0  0  0  0  0  0  0  0  0
  -39.3150  162.0690   -1.0050 C   0  0  0  0  0  0  0  0  0  0  0  0
  -38.9510  162.9020   -2.1420 C   0  0  0  0  0  0  0  0  0  0  0  0
  -38.8470  164.2810   -2.0200 C   0  0  0  0  0  0  0  0  0  0  0  0
  -38.5210  165.1110   -3.0340 N   0  0  0  0  0  0  0  0  0  0  0  0
  -38.2830  164.5670   -4.2400 C   0  0  0  0  0  0  0  0  0  0  0  0
  -37.9110  165.3770   -5.3280 N   0  0  0  0  0  0  0  0  0  0  0  0
  -38.2220  164.8110   -6.6300 C   0  0  0  0  0  0  0  0  0  0  0  0
  -38.3500  163.1880   -4.4450 C   0  0  0  0  0  0  0  0  0  0  0  0
  -38.6890  162.3340   -3.3890 C   0  0  0  0  0  0  0  0  0  0  0  0
  -40.6560  160.3171   -5.1228 H   0  0  0  0  0  0  0  0  0  0  0  0
  -39.7029  161.1935   -6.3678 H   0  0  0  0  0  0  0  0  0  0  0  0
  -39.7442  159.3977   -6.3678 H   0  0  0  0  0  0  0  0  0  0  0  0
  -38.2397  159.2206   -4.6421 H   0  0  0  0  0  0  0  0  0  0  0  0
  -37.7159  160.8232   -5.3199 H   0  0  0  0  0  0  0  0  0  0  0  0
  -37.7586  159.1416    0.1958 H   0  0  0  0  0  0  0  0  0  0  0  0
  -37.9420  156.5610    1.9340 H   0  0  0  0  0  0  0  0  0  0  0  0
  -35.8770  156.6600    2.6960 H   0  0  0  0  0  0  0  0  0  0  0  0
  -33.6951  157.9158    3.9277 H   0  0  0  0  0  0  0  0  0  0  0  0
  -32.3422  157.6023    5.9993 H   0  0  0  0  0  0  0  0  0  0  0  0
  -33.2973  156.3734    7.9466 H   0  0  0  0  0  0  0  0  0  0  0  0
  -35.6128  155.4561    7.8218 H   0  0  0  0  0  0  0  0  0  0  0  0
  -36.9675  155.7704    5.7546 H   0  0  0  0  0  0  0  0  0  0  0  0
  -42.3663  159.0978    2.1158 H   0  0  0  0  0  0  0  0  0  0  0  0
  -39.5071  162.5319   -0.0258 H   0  0  0  0  0  0  0  0  0  0  0  0
  -39.0428  164.7264   -1.0334 H   0  0  0  0  0  0  0  0  0  0  0  0
  -36.9270  165.6160   -5.2480 H   0  0  0  0  0  0  0  0  0  0  0  0
  -38.7479  163.8540   -6.4976 H   0  0  0  0  0  0  0  0  0  0  0  0
  -38.8639  165.5079   -7.1889 H   0  0  0  0  0  0  0  0  0  0  0  0
  -37.2896  164.6428   -7.1889 H   0  0  0  0  0  0  0  0  0  0  0  0
  -38.1356  162.7708   -5.4400 H   0  0  0  0  0  0  0  0  0  0  0  0
  1  2  1  0
  2  3  1  0
  3  4  1  0
  4  5  2  0
  4  6  1  0
  6  7  1  0
  7  8  1  0
  8  9  2  0
  9 10  1  0
 10 11  1  0
 11 12  2  0
 11 13  1  0
 13 14  1  0
 14 15  2  0
 15 16  1  0
 16 17  2  0
 17 18  1  0
 18 19  2  0
  9 20  1  0
 20 21  1  0
 20 22  2  0
 22 23  1  0
 23 24  1  0
  6 25  2  0
 25 26  1  0
 26 27  2  0
 27 28  1  0
 28 29  2  0
 29 30  1  0
 30 31  1  0
 29 32  1  0
 32 33  2  0
 33  3  1  0
 23  7  2  0
 33 26  1  0
 19 14  1  0
  1 34  1  0
  1 35  1  0
  1 36  1  0
  2 37  1  0
  2 38  1  0
  8 39  1  0
 10 40  1  0
 13 41  1  0
 15 42  1  0
 16 43  1  0
 17 44  1  0
 18 45  1  0
 19 46  1  0
 22 47  1  0
 25 48  1  0
 27 49  1  0
 30 50  1  0
 31 51  1  0
 31 52  1  0
 31 53  1  0
 32 54  1  0
M  END
>  <meeko>  (1) 
{"is_sidechain": false}

>  <vina_affinity_kcal_mol>  (1) 
-9.921

>  <pose_rank>  (1) 
1

$$$$

     RDKit          3D

 54 57  0  0  0  0  0  0  0  0999 V2000
  -39.0000  165.1260   -3.0820 C   0  0  0  0  0  0  0  0  0  0  0  0
  -38.3510  164.2360   -2.0330 C   0  0  0  0  0  0  0  0  0  0  0  0
  -38.7230  162.8310   -2.1940 N   0  0  0  0  0  0  0  0  0  0  0  0
  -39.0060  162.1080   -1.0320 C   0  0  0  0  0  0  0  0  0  0  0  0
  -38.9180  162.5870    0.0990 O   0  0  0  0  0  0  0  0  0  0  0  0
  -39.4230  160.6770   -1.1930 C   0  0  0  0  0  0  0  0  0  0  0  0
  -39.7980  159.8790   -0.0090 C   0  0  0  0  0  0  0  0  0  0  0  0
  -38.8100  159.0680    0.5810 C   0  0  0  0  0  0  0  0  0  0  0  0
  -39.1050  158.2640    1.6880 C   0  0  0  0  0  0  0  0  0  0  0  0
  -38.0590  157.4820    2.2290 N   0  0  0  0  0  0  0  0  0  0  0  0
  -37.4610  157.7140    3.4620 C   0  0  0  0  0  0  0  0  0  0  0  0
  -37.9150  158.4630    4.3170 O   0  0  0  0  0  0  0  0  0  0  0  0
  -36.3220  156.9350    3.5800 N   0  0  0  0  0  0  0  0  0  0  0  0
  -35.5040  156.7760    4.7170 C   0  0  0  0  0  0  0  0  0  0  0  0
  -35.8680  156.0280    5.8380 C   0  0  0  0  0  0  0  0  0  0  0  0
  -34.9930  155.9060    6.9220 C   0  0  0  0  0  0  0  0  0  0  0  0
  -33.7470  156.5270    6.8930 C   0  0  0  0  0  0  0  0  0  0  0  0
  -33.3720  157.2700    5.7770 C   0  0  0  0  0  0  0  0  0  0  0  0
  -34.2460  157.3910    4.6930 C   0  0  0  0  0  0  0  0  0  0  0  0
  -40.3920  158.3170    2.2350 C   0  0  0  0  0  0  0  0  0  0  0  0
  -40.6950  157.6690    3.3680 F   0  0  0  0  0  0  0  0  0  0  0  0
  -41.3800  159.1200    1.6700 C   0  0  0  0  0  0  0  0  0  0  0  0
  -41.0880  159.8970    0.5480 C   0  0  0  0  0  0  0  0  0  0  0  0
  -42.4810  160.9820   -0.1530 Br  0  0  0  0  0  0  0  0  0  0  0  0
  -39.4450  160.1010   -2.4030 C   0  0  0  0  0  0  0  0  0  0  0  0
  -39.0860  160.8680   -3.5880 C   0  0  0  0  0  0  0  0  0  0  0  0
  -39.0950  160.2900   -4.8500 C   0  0  0  0  0  0  0  0  0  0  0  0
  -38.7690  160.9420   -5.9860 N   0  0  0  0  0  0  0  0  0  0  0  0
  -38.4090  162.2330   -5.8890 C   0  0  0  0  0  0  0  0  0  0  0  0
  -38.0850  162.9730   -7.0400 N   0  0  0  0  0  0  0  0  0  0  0  0
  -38.2970  164.4060   -6.9120 C   0  0  0  0  0  0  0  0  0  0  0  0
  -38.3900  162.8950   -4.6600 C   0  0  0  0  0  0  0  0  0  0  0  0
  -38.7300  162.2130   -3.4870 C   0  0  0  0  0  0  0  0  0  0  0  0
  -39.5778  165.9184   -2.5838 H   0  0  0  0  0  0  0  0  0  0  0  0
  -38.2200  165.5808   -3.7104 H   0  0  0  0  0  0  0  0  0  0  0  0
  -39.6714  164.5224   -3.7104 H   0  0  0  0  0  0  0  0  0  0  0  0
  -37.2581  164.3253   -2.1198 H   0  0  0  0  0  0  0  0  0  0  0  0
  -38.7025  164.5673   -1.0447 H   0  0  0  0  0  0  0  0  0  0  0  0
  -37.7913  159.0662    0.1659 H   0  0  0  0  0  0  0  0  0  0  0  0
  -38.0030  156.5220    1.9230 H   0  0  0  0  0  0  0  0  0  0  0  0
  -35.9450  156.5960    2.7080 H   0  0  0  0  0  0  0  0  0  0  0  0
  -36.8491  155.5315    5.8689 H   0  0  0  0  0  0  0  0  0  0  0  0
  -35.2905  155.3166    7.8019 H   0  0  0  0  0  0  0  0  0  0  0  0
  -33.0619  156.4309    7.7482 H   0  0  0  0  0  0  0  0  0  0  0  0
  -32.3884  157.7616    5.7483 H   0  0  0  0  0  0  0  0  0  0  0  0
  -33.9426  157.9754    3.8118 H   0  0  0  0  0  0  0  0  0  0  0  0
  -42.3890  159.1417    2.1075 H   0  0  0  0  0  0  0  0  0  0  0  0
  -39.7354  159.0446   -2.5015 H   0  0  0  0  0  0  0  0  0  0  0  0
  -39.3866  159.2323   -4.9294 H   0  0  0  0  0  0  0  0  0  0  0  0
  -38.5850  162.5900   -7.8380 H   0  0  0  0  0  0  0  0  0  0  0  0
  -38.3371  164.6770   -5.8467 H   0  0  0  0  0  0  0  0  0  0  0  0
  -37.4687  164.9439   -7.3963 H   0  0  0  0  0  0  0  0  0  0  0  0
  -39.2456  164.6810   -7.3963 H   0  0  0  0  0  0  0  0  0  0  0  0
  -38.1066  163.9569   -4.6139 H   0  0  0  0  0  0  0  0  0  0  0  0
  1  2  1  0
  2  3  1  0
  3  4  1  0
  4  5  2  0
  4  6  1  0
  6  7  1  0
  7  8  1  0
  8  9  2  0
  9 10  1  0
 10 11  1  0
 11 12  2  0
 11 13  1  0
 13 14  1  0
 14 15  2  0
 15 16  1  0
 16 17  2  0
 17 18  1  0
 18 19  2  0
  9 20  1  0
 20 21  1  0
 20 22  2  0
 22 23  1  0
 23 24  1  0
  6 25  2  0
 25 26  1  0
 26 27  2  0
 27 28  1  0
 28 29  2  0
 29 30  1  0
 30 31  1  0
 29 32  1  0
 32 33  2  0
 33  3  1  0
 23  7  2  0
 33 26  1  0
 19 14  1  0
  1 34  1  0
  1 35  1  0
  1 36  1  0
  2 37  1  0
  2 38  1  0
  8 39  1  0
 10 40  1  0
 13 41  1  0
 15 42  1  0
 16 43  1  0
 17 44  1  0
 18 45  1  0
 19 46  1  0
 22 47  1  0
 25 48  1  0
 27 49  1  0
 30 50  1  0
 31 51  1  0
 31 52  1  0
 31 53  1  0
 32 54  1  0
M  END
>  <meeko>  (2) 
{"is_sidechain": false}

>  <vina_affinity_kcal_mol>  (2) 
-9.906

>  <pose_rank>  (2) 
2

$$$$

     RDKit          3D

 54 57  0  0  0  0  0  0  0  0999 V2000
  -40.0180  150.1290    5.7580 C   0  0  0  0  0  0  0  0  0  0  0  0
  -38.7340  150.1370    4.9410 C   0  0  0  0  0  0  0  0  0  0  0  0
  -37.6700  150.8990    5.5920 N   0  0  0  0  0  0  0  0  0  0  0  0
  -37.4450  152.2010    5.1360 C   0  0  0  0  0  0  0  0  0  0  0  0
  -38.0700  152.7060    4.2020 O   0  0  0  0  0  0  0  0  0  0  0  0
  -36.3800  153.0010    5.8230 C   0  0  0  0  0  0  0  0  0  0  0  0
  -36.1400  154.4030    5.4310 C   0  0  0  0  0  0  0  0  0  0  0  0
  -37.2330  155.1560    4.9640 C   0  0  0  0  0  0  0  0  0  0  0  0
  -37.0710  156.4830    4.5490 C   0  0  0  0  0  0  0  0  0  0  0  0
  -38.2170  157.1760    4.0990 N   0  0  0  0  0  0  0  0  0  0  0  0
  -38.3100  157.8330    2.8780 C   0  0  0  0  0  0  0  0  0  0  0  0
  -37.5120  157.6960    1.9600 O   0  0  0  0  0  0  0  0  0  0  0  0
  -39.4580  158.6080    2.8530 N   0  0  0  0  0  0  0  0  0  0  0  0
  -39.9870  159.3240    1.7610 C   0  0  0  0  0  0  0  0  0  0  0  0
  -39.2120  160.0690    0.8710 C   0  0  0  0  0  0  0  0  0  0  0  0
  -39.8120  160.7430   -0.1980 C   0  0  0  0  0  0  0  0  0  0  0  0
  -41.1910  160.6730   -0.3880 C   0  0  0  0  0  0  0  0  0  0  0  0
  -41.9720  159.9270    0.4910 C   0  0  0  0  0  0  0  0  0  0  0  0
  -41.3720  159.2540    1.5590 C   0  0  0  0  0  0  0  0  0  0  0  0
  -35.8040  157.0700    4.6530 C   0  0  0  0  0  0  0  0  0  0  0  0
  -35.6160  158.3700    4.3930 F   0  0  0  0  0  0  0  0  0  0  0  0
  -34.7110  156.3430    5.1210 C   0  0  0  0  0  0  0  0  0  0  0  0
  -34.8750  155.0120    5.5050 C   0  0  0  0  0  0  0  0  0  0  0  0
  -33.3430  154.0920    6.1520 Br  0  0  0  0  0  0  0  0  0  0  0  0
  -35.6240  152.4520    6.7850 C   0  0  0  0  0  0  0  0  0  0  0  0
  -35.8450  151.0720    7.1940 C   0  0  0  0  0  0  0  0  0  0  0  0
  -35.0690  150.4820    8.1830 C   0  0  0  0  0  0  0  0  0  0  0  0
  -35.2180  149.2080    8.6050 N   0  0  0  0  0  0  0  0  0  0  0  0
  -36.1770  148.4620    8.0290 C   0  0  0  0  0  0  0  0  0  0  0  0
  -36.3990  147.1380    8.4460 N   0  0  0  0  0  0  0  0  0  0  0  0
  -35.3280  146.2150    8.1050 C   0  0  0  0  0  0  0  0  0  0  0  0
  -37.0120  148.9850    7.0390 C   0  0  0  0  0  0  0  0  0  0  0  0
  -36.8520  150.3060    6.6070 C   0  0  0  0  0  0  0  0  0  0  0  0
  -39.7706  150.1305    6.8298 H   0  0  0  0  0  0  0  0  0  0  0  0
  -40.6113  151.0235    5.5173 H   0  0  0  0  0  0  0  0  0  0  0  0
  -40.6001  149.2272    5.5173 H   0  0  0  0  0  0  0  0  0  0  0  0
  -38.3944  149.0996    4.8048 H   0  0  0  0  0  0  0  0  0  0  0  0
  -38.9511  150.6173    3.9755 H   0  0  0  0  0  0  0  0  0  0  0  0
  -38.2307  154.6945    4.9244 H   0  0  0  0  0  0  0  0  0  0  0  0
  -39.1060  156.8720    4.4670 H   0  0  0  0  0  0  0  0  0  0  0  0
  -39.8460  158.8230    3.7590 H   0  0  0  0  0  0  0  0  0  0  0  0
  -38.1225  160.1266    1.0110 H   0  0  0  0  0  0  0  0  0  0  0  0
  -39.1928  161.3307   -0.8916 H   0  0  0  0  0  0  0  0  0  0  0  0
  -41.6604  161.2048   -1.2287 H   0  0  0  0  0  0  0  0  0  0  0  0
  -43.0606  159.8674    0.3449 H   0  0  0  0  0  0  0  0  0  0  0  0
  -41.9934  158.6632    2.2481 H   0  0  0  0  0  0  0  0  0  0  0  0
  -33.7210  156.8178    5.1875 H   0  0  0  0  0  0  0  0  0  0  0  0
  -34.8339  153.0464    7.2670 H   0  0  0  0  0  0  0  0  0  0  0  0
  -34.2828  151.0913    8.6526 H   0  0  0  0  0  0  0  0  0  0  0  0
  -37.2960  146.8190    8.0900 H   0  0  0  0  0  0  0  0  0  0  0  0
  -34.8738  145.8236    9.0272 H   0  0  0  0  0  0  0  0  0  0  0  0
  -35.7364  145.3813    7.5149 H   0  0  0  0  0  0  0  0  0  0  0  0
  -34.5637  146.7420    7.5149 H   0  0  0  0  0  0  0  0  0  0  0  0
  -37.7986  148.3557    6.5972 H   0  0  0  0  0  0  0  0  0  0  0  0
  1  2  1  0
  2  3  1  0
  3  4  1  0
  4  5  2  0
  4  6  1  0
  6  7  1  0
  7  8  1  0
  8  9  2  0
  9 10  1  0
 10 11  1  0
 11 12  2  0
 11 13  1  0
 13 14  1  0
 14 15  2  0
 15 16  1  0
 16 17  2  0
 17 18  1  0
 18 19  2  0
  9 20  1  0
 20 21  1  0
 20 22  2  0
 22 23  1  0
 23 24  1  0
  6 25  2  0
 25 26  1  0
 26 27  2  0
 27 28  1  0
 28 29  2  0
 29 30  1  0
 30 31  1  0
 29 32  1  0
 32 33  2  0
 33  3  1  0
 23  7  2  0
 33 26  1  0
 19 14  1  0
  1 34  1  0
  1 35  1  0
  1 36  1  0
  2 37  1  0
  2 38  1  0
  8 39  1  0
 10 40  1  0
 13 41  1  0
 15 42  1  0
 16 43  1  0
 17 44  1  0
 18 45  1  0
 19 46  1  0
 22 47  1  0
 25 48  1  0
 27 49  1  0
 30 50  1  0
 31 51  1  0
 31 52  1  0
 31 53  1  0
 32 54  1  0
M  END
>  <meeko>  (3) 
{"is_sidechain": false}

>  <vina_affinity_kcal_mol>  (3) 
-9.006

>  <pose_rank>  (3) 
3

$$$$

     RDKit          3D

 54 57  0  0  0  0  0  0  0  0999 V2000
  -35.0380  149.3210    3.8730 C   0  0  0  0  0  0  0  0  0  0  0  0
  -34.8720  150.0760    5.1830 C   0  0  0  0  0  0  0  0  0  0  0  0
  -36.0520  150.8740    5.5140 N   0  0  0  0  0  0  0  0  0  0  0  0
  -35.9160  152.2640    5.4720 C   0  0  0  0  0  0  0  0  0  0  0  0
  -34.8540  152.8300    5.2100 O   0  0  0  0  0  0  0  0  0  0  0  0
  -37.1310  153.0880    5.7750 C   0  0  0  0  0  0  0  0  0  0  0  0
  -37.0690  154.5590    5.6840 C   0  0  0  0  0  0  0  0  0  0  0  0
  -37.8610  155.1960    4.7090 C   0  0  0  0  0  0  0  0  0  0  0  0
  -37.8280  156.5860    4.5490 C   0  0  0  0  0  0  0  0  0  0  0  0
  -38.6570  157.1520    3.5540 N   0  0  0  0  0  0  0  0  0  0  0  0
  -38.1960  157.9180    2.4910 C   0  0  0  0  0  0  0  0  0  0  0  0
  -37.0210  158.0000    2.1580 O   0  0  0  0  0  0  0  0  0  0  0  0
  -39.2690  158.5190    1.8510 N   0  0  0  0  0  0  0  0  0  0  0  0
  -39.2480  159.2670    0.6570 C   0  0  0  0  0  0  0  0  0  0  0  0
  -39.2360  160.6620    0.6140 C   0  0  0  0  0  0  0  0  0  0  0  0
  -39.2010  161.3330   -0.6130 C   0  0  0  0  0  0  0  0  0  0  0  0
  -39.1750  160.6140   -1.8050 C   0  0  0  0  0  0  0  0  0  0  0  0
  -39.1800  159.2220   -1.7740 C   0  0  0  0  0  0  0  0  0  0  0  0
  -39.2140  158.5530   -0.5480 C   0  0  0  0  0  0  0  0  0  0  0  0
  -37.0280  157.3440    5.4120 C   0  0  0  0  0  0  0  0  0  0  0  0
  -37.0560  158.6830    5.3900 F   0  0  0  0  0  0  0  0  0  0  0  0
  -36.2440  156.7330    6.3880 C   0  0  0  0  0  0  0  0  0  0  0  0
  -36.2590  155.3440    6.5220 C   0  0  0  0  0  0  0  0  0  0  0  0
  -35.1800  154.5850    7.8890 Br  0  0  0  0  0  0  0  0  0  0  0  0
  -38.2790  152.5040    6.1480 C   0  0  0  0  0  0  0  0  0  0  0  0
  -38.3690  151.0540    6.2400 C   0  0  0  0  0  0  0  0  0  0  0  0
  -39.5450  150.4280    6.6310 C   0  0  0  0  0  0  0  0  0  0  0  0
  -39.6940  149.0910    6.7420 N   0  0  0  0  0  0  0  0  0  0  0  0
  -38.6340  148.3150    6.4580 C   0  0  0  0  0  0  0  0  0  0  0  0
  -38.7350  146.9140    6.5280 N   0  0  0  0  0  0  0  0  0  0  0  0
  -40.0950  146.4060    6.4430 C   0  0  0  0  0  0  0  0  0  0  0  0
  -37.4190  148.8620    6.0420 C   0  0  0  0  0  0  0  0  0  0  0  0
  -37.2730  150.2490    5.9290 C   0  0  0  0  0  0  0  0  0  0  0  0
  -35.2698  148.2667    4.0843 H   0  0  0  0  0  0  0  0  0  0  0  0
  -35.8593  149.7680    3.2937 H   0  0  0  0  0  0  0  0  0  0  0  0
  -34.1049  149.3823    3.2937 H   0  0  0  0  0  0  0  0  0  0  0  0
  -34.6974  149.3499    5.9907 H   0  0  0  0  0  0  0  0  0  0  0  0
  -34.0202  150.7630    5.0712 H   0  0  0  0  0  0  0  0  0  0  0  0
  -38.5154  154.5919    4.0635 H   0  0  0  0  0  0  0  0  0  0  0  0
  -39.5320  156.6840    3.3710 H   0  0  0  0  0  0  0  0  0  0  0  0
  -40.1140  158.5750    2.3990 H   0  0  0  0  0  0  0  0  0  0  0  0
  -39.2542  161.2377    1.5512 H   0  0  0  0  0  0  0  0  0  0  0  0
  -39.1940  162.4327   -0.6361 H   0  0  0  0  0  0  0  0  0  0  0  0
  -39.1506  161.1442   -2.7685 H   0  0  0  0  0  0  0  0  0  0  0  0
  -39.1572  158.6500   -2.7133 H   0  0  0  0  0  0  0  0  0  0  0  0
  -39.2141  157.4532   -0.5285 H   0  0  0  0  0  0  0  0  0  0  0  0
  -35.6145  157.3440    7.0516 H   0  0  0  0  0  0  0  0  0  0  0  0
  -39.1565  153.1233    6.3855 H   0  0  0  0  0  0  0  0  0  0  0  0
  -40.4119  151.0631    6.8657 H   0  0  0  0  0  0  0  0  0  0  0  0
  -38.2630  146.5840    7.3650 H   0  0  0  0  0  0  0  0  0  0  0  0
  -40.4947  146.2567    7.4569 H   0  0  0  0  0  0  0  0  0  0  0  0
  -40.7238  147.1299    5.9039 H   0  0  0  0  0  0  0  0  0  0  0  0
  -40.0952  145.4472    5.9039 H   0  0  0  0  0  0  0  0  0  0  0  0
  -36.5735  148.2005    5.8022 H   0  0  0  0  0  0  0  0  0  0  0  0
  1  2  1  0
  2  3  1  0
  3  4  1  0
  4  5  2  0
  4  6  1  0
  6  7  1  0
  7  8  1  0
  8  9  2  0
  9 10  1  0
 10 11  1  0
 11 12  2  0
 11 13  1  0
 13 14  1  0
 14 15  2  0
 15 16  1  0
 16 17  2  0
 17 18  1  0
 18 19  2  0
  9 20  1  0
 20 21  1  0
 20 22  2  0
 22 23  1  0
 23 24  1  0
  6 25  2  0
 25 26  1  0
 26 27  2  0
 27 28  1  0
 28 29  2  0
 29 30  1  0
 30 31  1  0
 29 32  1  0
 32 33  2  0
 33  3  1  0
 23  7  2  0
 33 26  1  0
 19 14  1  0
  1 34  1  0
  1 35  1  0
  1 36  1  0
  2 37  1  0
  2 38  1  0
  8 39  1  0
 10 40  1  0
 13 41  1  0
 15 42  1  0
 16 43  1  0
 17 44  1  0
 18 45  1  0
 19 46  1  0
 22 47  1  0
 25 48  1  0
 27 49  1  0
 30 50  1  0
 31 51  1  0
 31 52  1  0
 31 53  1  0
 32 54  1  0
M  END
>  <meeko>  (4) 
{"is_sidechain": false}

>  <vina_affinity_kcal_mol>  (4) 
-8.502

>  <pose_rank>  (4) 
4

$$$$

     RDKit          3D

 54 57  0  0  0  0  0  0  0  0999 V2000
  -35.0110  145.7420   -2.8180 C   0  0  0  0  0  0  0  0  0  0  0  0
  -35.3270  147.1810   -2.4380 C   0  0  0  0  0  0  0  0  0  0  0  0
  -36.2240  147.2650   -1.2860 N   0  0  0  0  0  0  0  0  0  0  0  0
  -35.6370  147.2610   -0.0180 C   0  0  0  0  0  0  0  0  0  0  0  0
  -34.4230  147.1540    0.1630 O   0  0  0  0  0  0  0  0  0  0  0  0
  -36.5480  147.3830    1.1660 C   0  0  0  0  0  0  0  0  0  0  0  0
  -35.9850  147.4500    2.5280 C   0  0  0  0  0  0  0  0  0  0  0  0
  -35.6470  148.7170    3.0420 C   0  0  0  0  0  0  0  0  0  0  0  0
  -35.0820  148.8500    4.3160 C   0  0  0  0  0  0  0  0  0  0  0  0
  -34.7760  150.1550    4.7650 N   0  0  0  0  0  0  0  0  0  0  0  0
  -35.7040  151.0380    5.3040 C   0  0  0  0  0  0  0  0  0  0  0  0
  -36.8280  150.7190    5.6670 O   0  0  0  0  0  0  0  0  0  0  0  0
  -35.1390  152.2990    5.4090 N   0  0  0  0  0  0  0  0  0  0  0  0
  -35.6950  153.4410    6.0200 C   0  0  0  0  0  0  0  0  0  0  0  0
  -37.0040  153.8760    5.8100 C   0  0  0  0  0  0  0  0  0  0  0  0
  -37.4860  155.0140    6.4660 C   0  0  0  0  0  0  0  0  0  0  0  0
  -36.6640  155.7210    7.3400 C   0  0  0  0  0  0  0  0  0  0  0  0
  -35.3590  155.2920    7.5610 C   0  0  0  0  0  0  0  0  0  0  0  0
  -34.8780  154.1550    6.9070 C   0  0  0  0  0  0  0  0  0  0  0  0
  -34.9030  147.7020    5.0960 C   0  0  0  0  0  0  0  0  0  0  0  0
  -34.4880  147.7830    6.3680 F   0  0  0  0  0  0  0  0  0  0  0  0
  -35.2400  146.4420    4.6080 C   0  0  0  0  0  0  0  0  0  0  0  0
  -35.7750  146.3130    3.3260 C   0  0  0  0  0  0  0  0  0  0  0  0
  -36.2280  144.5640    2.7380 Br  0  0  0  0  0  0  0  0  0  0  0  0
  -37.8790  147.4140    1.0060 C   0  0  0  0  0  0  0  0  0  0  0  0
  -38.4600  147.3550   -0.3280 C   0  0  0  0  0  0  0  0  0  0  0  0
  -39.8350  147.3780   -0.5160 C   0  0  0  0  0  0  0  0  0  0  0  0
  -40.4380  147.3210   -1.7230 N   0  0  0  0  0  0  0  0  0  0  0  0
  -39.6560  147.2340   -2.8120 C   0  0  0  0  0  0  0  0  0  0  0  0
  -40.2240  147.1990   -4.0980 N   0  0  0  0  0  0  0  0  0  0  0  0
  -41.2980  146.2320   -4.2540 C   0  0  0  0  0  0  0  0  0  0  0  0
  -38.2630  147.2210   -2.7120 C   0  0  0  0  0  0  0  0  0  0  0  0
  -37.6460  147.2810   -1.4580 C   0  0  0  0  0  0  0  0  0  0  0  0
  -34.8793  145.1422   -1.9054 H   0  0  0  0  0  0  0  0  0  0  0  0
  -35.8399  145.3291   -3.4117 H   0  0  0  0  0  0  0  0  0  0  0  0
  -34.0854  145.7144   -3.4117 H   0  0  0  0  0  0  0  0  0  0  0  0
  -34.3870  147.6971   -2.1931 H   0  0  0  0  0  0  0  0  0  0  0  0
  -35.8321  147.6526   -3.2938 H   0  0  0  0  0  0  0  0  0  0  0  0
  -35.8296  149.6151    2.4336 H   0  0  0  0  0  0  0  0  0  0  0  0
  -33.8290  150.3200    5.0720 H   0  0  0  0  0  0  0  0  0  0  0  0
  -34.3300  152.4530    4.8270 H   0  0  0  0  0  0  0  0  0  0  0  0
  -37.6611  153.3208    5.1245 H   0  0  0  0  0  0  0  0  0  0  0  0
  -38.5182  155.3515    6.2907 H   0  0  0  0  0  0  0  0  0  0  0  0
  -37.0452  156.6157    7.8540 H   0  0  0  0  0  0  0  0  0  0  0  0
  -34.7063  155.8478    8.2503 H   0  0  0  0  0  0  0  0  0  0  0  0
  -33.8475  153.8167    7.0902 H   0  0  0  0  0  0  0  0  0  0  0  0
  -35.0846  145.5498    5.2324 H   0  0  0  0  0  0  0  0  0  0  0  0
  -38.5349  147.4843    1.8863 H   0  0  0  0  0  0  0  0  0  0  0  0
  -40.4750  147.4472    0.3760 H   0  0  0  0  0  0  0  0  0  0  0  0
  -39.4890  147.0590   -4.7860 H   0  0  0  0  0  0  0  0  0  0  0  0
  -41.6516  145.9136   -3.2622 H   0  0  0  0  0  0  0  0  0  0  0  0
  -42.1285  146.6928   -4.8089 H   0  0  0  0  0  0  0  0  0  0  0  0
  -40.9266  145.3578   -4.8089 H   0  0  0  0  0  0  0  0  0  0  0  0
  -37.6488  147.1633   -3.6227 H   0  0  0  0  0  0  0  0  0  0  0  0
  1  2  1  0
  2  3  1  0
  3  4  1  0
  4  5  2  0
  4  6  1  0
  6  7  1  0
  7  8  1  0
  8  9  2  0
  9 10  1  0
 10 11  1  0
 11 12  2  0
 11 13  1  0
 13 14  1  0
 14 15  2  0
 15 16  1  0
 16 17  2  0
 17 18  1  0
 18 19  2  0
  9 20  1  0
 20 21  1  0
 20 22  2  0
 22 23  1  0
 23 24  1  0
  6 25  2  0
 25 26  1  0
 26 27  2  0
 27 28  1  0
 28 29  2  0
 29 30  1  0
 30 31  1  0
 29 32  1  0
 32 33  2  0
 33  3  1  0
 23  7  2  0
 33 26  1  0
 19 14  1  0
  1 34  1  0
  1 35  1  0
  1 36  1  0
  2 37  1  0
  2 38  1  0
  8 39  1  0
 10 40  1  0
 13 41  1  0
 15 42  1  0
 16 43  1  0
 17 44  1  0
 18 45  1  0
 19 46  1  0
 22 47  1  0
 25 48  1  0
 27 49  1  0
 30 50  1  0
 31 51  1  0
 31 52  1  0
 31 53  1  0
 32 54  1  0
M  END
>  <meeko>  (5) 
{"is_sidechain": false}

>  <vina_affinity_kcal_mol>  (5) 
-8.466

>  <pose_rank>  (5) 
5

$$$$

     RDKit          3D

 54 57  0  0  0  0  0  0  0  0999 V2000
  -34.1480  144.7990    2.5880 C   0  0  0  0  0  0  0  0  0  0  0  0
  -35.6370  144.7540    2.2780 C   0  0  0  0  0  0  0  0  0  0  0  0
  -36.1740  146.0740    1.9510 N   0  0  0  0  0  0  0  0  0  0  0  0
  -36.7580  146.8020    2.9920 C   0  0  0  0  0  0  0  0  0  0  0  0
  -36.8690  146.3680    4.1390 O   0  0  0  0  0  0  0  0  0  0  0  0
  -37.2780  148.1710    2.6710 C   0  0  0  0  0  0  0  0  0  0  0  0
  -37.8460  149.0150    3.7400 C   0  0  0  0  0  0  0  0  0  0  0  0
  -36.9910  149.9240    4.3900 C   0  0  0  0  0  0  0  0  0  0  0  0
  -37.4580  150.7340    5.4320 C   0  0  0  0  0  0  0  0  0  0  0  0
  -36.5410  151.6270    6.0310 N   0  0  0  0  0  0  0  0  0  0  0  0
  -36.3190  152.9300    5.6030 C   0  0  0  0  0  0  0  0  0  0  0  0
  -37.0440  153.5310    4.8210 O   0  0  0  0  0  0  0  0  0  0  0  0
  -35.1980  153.4430    6.2350 N   0  0  0  0  0  0  0  0  0  0  0  0
  -34.7090  154.7640    6.1810 C   0  0  0  0  0  0  0  0  0  0  0  0
  -34.9230  155.7140    7.1800 C   0  0  0  0  0  0  0  0  0  0  0  0
  -34.3910  157.0020    7.0580 C   0  0  0  0  0  0  0  0  0  0  0  0
  -33.6400  157.3480    5.9380 C   0  0  0  0  0  0  0  0  0  0  0  0
  -33.4160  156.4060    4.9380 C   0  0  0  0  0  0  0  0  0  0  0  0
  -33.9460  155.1190    5.0600 C   0  0  0  0  0  0  0  0  0  0  0  0
  -38.8100  150.6620    5.7860 C   0  0  0  0  0  0  0  0  0  0  0  0
  -39.3400  151.5020    6.6850 F   0  0  0  0  0  0  0  0  0  0  0  0
  -39.6740  149.7750    5.1480 C   0  0  0  0  0  0  0  0  0  0  0  0
  -39.1950  148.9490    4.1300 C   0  0  0  0  0  0  0  0  0  0  0  0
  -40.4370  147.7800    3.2930 Br  0  0  0  0  0  0  0  0  0  0  0  0
  -37.2490  148.6380    1.4140 C   0  0  0  0  0  0  0  0  0  0  0  0
  -36.6880  147.8280    0.3430 C   0  0  0  0  0  0  0  0  0  0  0  0
  -36.6550  148.2880   -0.9660 C   0  0  0  0  0  0  0  0  0  0  0  0
  -36.1550  147.5870   -2.0060 N   0  0  0  0  0  0  0  0  0  0  0  0
  -35.6580  146.3630   -1.7580 C   0  0  0  0  0  0  0  0  0  0  0  0
  -35.0980  145.5950   -2.7940 N   0  0  0  0  0  0  0  0  0  0  0  0
  -33.7050  145.2350   -2.5880 C   0  0  0  0  0  0  0  0  0  0  0  0
  -35.6380  145.8310   -0.4670 C   0  0  0  0  0  0  0  0  0  0  0  0
  -36.1580  146.5640    0.6060 C   0  0  0  0  0  0  0  0  0  0  0  0
  -34.0004  144.8035    3.6780 H   0  0  0  0  0  0  0  0  0  0  0  0
  -33.6565  143.9153    2.1550 H   0  0  0  0  0  0  0  0  0  0  0  0
  -33.7107  145.7108    2.1550 H   0  0  0  0  0  0  0  0  0  0  0  0
  -35.8003  144.0832    1.4216 H   0  0  0  0  0  0  0  0  0  0  0  0
  -36.1578  144.3910    3.1764 H   0  0  0  0  0  0  0  0  0  0  0  0
  -35.9399  149.9993    4.0747 H   0  0  0  0  0  0  0  0  0  0  0  0
  -36.3300  151.4770    7.0070 H   0  0  0  0  0  0  0  0  0  0  0  0
  -34.5740  152.7520    6.6230 H   0  0  0  0  0  0  0  0  0  0  0  0
  -35.5137  155.4486    8.0691 H   0  0  0  0  0  0  0  0  0  0  0  0
  -34.5668  157.7445    7.8503 H   0  0  0  0  0  0  0  0  0  0  0  0
  -33.2250  158.3624    5.8436 H   0  0  0  0  0  0  0  0  0  0  0  0
  -32.8220  156.6747    4.0521 H   0  0  0  0  0  0  0  0  0  0  0  0
  -33.7627  154.3772    4.2687 H   0  0  0  0  0  0  0  0  0  0  0  0
  -40.7317  149.7256    5.4459 H   0  0  0  0  0  0  0  0  0  0  0  0
  -37.6510  149.6375    1.1917 H   0  0  0  0  0  0  0  0  0  0  0  0
  -37.0629  149.2891   -1.1695 H   0  0  0  0  0  0  0  0  0  0  0  0
  -35.2340  146.0760   -3.6790 H   0  0  0  0  0  0  0  0  0  0  0  0
  -33.4959  145.1810   -1.5094 H   0  0  0  0  0  0  0  0  0  0  0  0
  -33.5072  144.2562   -3.0493 H   0  0  0  0  0  0  0  0  0  0  0  0
  -33.0577  145.9954   -3.0493 H   0  0  0  0  0  0  0  0  0  0  0  0
  -35.2119  144.8320   -0.2927 H   0  0  0  0  0  0  0  0  0  0  0  0
  1  2  1  0
  2  3  1  0
  3  4  1  0
  4  5  2  0
  4  6  1  0
  6  7  1  0
  7  8  1  0
  8  9  2  0
  9 10  1  0
 10 11  1  0
 11 12  2  0
 11 13  1  0
 13 14  1  0
 14 15  2  0
 15 16  1  0
 16 17  2  0
 17 18  1  0
 18 19  2  0
  9 20  1  0
 20 21  1  0
 20 22  2  0
 22 23  1  0
 23 24  1  0
  6 25  2  0
 25 26  1  0
 26 27  2  0
 27 28  1  0
 28 29  2  0
 29 30  1  0
 30 31  1  0
 29 32  1  0
 32 33  2  0
 33  3  1  0
 23  7  2  0
 33 26  1  0
 19 14  1  0
  1 34  1  0
  1 35  1  0
  1 36  1  0
  2 37  1  0
  2 38  1  0
  8 39  1  0
 10 40  1  0
 13 41  1  0
 15 42  1  0
 16 43  1  0
 17 44  1  0
 18 45  1  0
 19 46  1  0
 22 47  1  0
 25 48  1  0
 27 49  1  0
 30 50  1  0
 31 51  1  0
 31 52  1  0
 31 53  1  0
 32 54  1  0
M  END
>  <meeko>  (6) 
{"is_sidechain": false}

>  <vina_affinity_kcal_mol>  (6) 
-8.37

>  <pose_rank>  (6) 
6

$$$$

     RDKit          3D

 54 57  0  0  0  0  0  0  0  0999 V2000
  -35.3200  150.5610    8.8640 C   0  0  0  0  0  0  0  0  0  0  0  0
  -34.8400  150.8660    7.4530 C   0  0  0  0  0  0  0  0  0  0  0  0
  -35.9280  151.3110    6.5830 N   0  0  0  0  0  0  0  0  0  0  0  0
  -36.6350  150.3250    5.8890 C   0  0  0  0  0  0  0  0  0  0  0  0
  -36.3570  149.1260    5.9500 O   0  0  0  0  0  0  0  0  0  0  0  0
  -37.7750  150.7710    5.0240 C   0  0  0  0  0  0  0  0  0  0  0  0
  -38.6000  149.7730    4.3160 C   0  0  0  0  0  0  0  0  0  0  0  0
  -38.1930  149.3700    3.0300 C   0  0  0  0  0  0  0  0  0  0  0  0
  -38.9440  148.4490    2.2910 C   0  0  0  0  0  0  0  0  0  0  0  0
  -38.4670  148.0880    1.0110 N   0  0  0  0  0  0  0  0  0  0  0  0
  -37.2580  147.4450    0.7750 C   0  0  0  0  0  0  0  0  0  0  0  0
  -36.5810  146.9110    1.6440 O   0  0  0  0  0  0  0  0  0  0  0  0
  -36.9790  147.4610   -0.5820 N   0  0  0  0  0  0  0  0  0  0  0  0
  -35.9240  146.8090   -1.2500 C   0  0  0  0  0  0  0  0  0  0  0  0
  -36.1000  145.7220   -2.1070 C   0  0  0  0  0  0  0  0  0  0  0  0
  -35.0010  145.1380   -2.7450 C   0  0  0  0  0  0  0  0  0  0  0  0
  -33.7180  145.6380   -2.5340 C   0  0  0  0  0  0  0  0  0  0  0  0
  -33.5320  146.7260   -1.6860 C   0  0  0  0  0  0  0  0  0  0  0  0
  -34.6300  147.3110   -1.0490 C   0  0  0  0  0  0  0  0  0  0  0  0
  -40.0880  147.8920    2.8750 C   0  0  0  0  0  0  0  0  0  0  0  0
  -40.7730  146.9140    2.2680 F   0  0  0  0  0  0  0  0  0  0  0  0
  -40.5030  148.2720    4.1490 C   0  0  0  0  0  0  0  0  0  0  0  0
  -39.7650  149.2130    4.8680 C   0  0  0  0  0  0  0  0  0  0  0  0
  -40.3800  149.6660    6.6080 Br  0  0  0  0  0  0  0  0  0  0  0  0
  -38.0480  152.0740    4.8680 C   0  0  0  0  0  0  0  0  0  0  0  0
  -37.2530  153.0790    5.5600 C   0  0  0  0  0  0  0  0  0  0  0  0
  -37.5140  154.4340    5.4080 C   0  0  0  0  0  0  0  0  0  0  0  0
  -36.8130  155.4150    6.0150 N   0  0  0  0  0  0  0  0  0  0  0  0
  -35.7950  155.0570    6.8180 C   0  0  0  0  0  0  0  0  0  0  0  0
  -35.0460  156.0320    7.5000 N   0  0  0  0  0  0  0  0  0  0  0  0
  -34.2690  156.9050    6.6350 C   0  0  0  0  0  0  0  0  0  0  0  0
  -35.4770  153.7150    7.0380 C   0  0  0  0  0  0  0  0  0  0  0  0
  -36.2080  152.7040    6.4050 C   0  0  0  0  0  0  0  0  0  0  0  0
  -34.6238  151.0034    9.5918 H   0  0  0  0  0  0  0  0  0  0  0  0
  -36.3233  150.9876    9.0102 H   0  0  0  0  0  0  0  0  0  0  0  0
  -35.3600  149.4715    9.0102 H   0  0  0  0  0  0  0  0  0  0  0  0
  -34.0786  151.6584    7.5015 H   0  0  0  0  0  0  0  0  0  0  0  0
  -34.4268  149.9388    7.0293 H   0  0  0  0  0  0  0  0  0  0  0  0
  -37.2701  149.7856    2.5993 H   0  0  0  0  0  0  0  0  0  0  0  0
  -39.1600  147.9290    0.2950 H   0  0  0  0  0  0  0  0  0  0  0  0
  -37.4790  148.1600   -1.1110 H   0  0  0  0  0  0  0  0  0  0  0  0
  -37.1096  145.3219   -2.2819 H   0  0  0  0  0  0  0  0  0  0  0  0
  -35.1504  144.2798   -3.4166 H   0  0  0  0  0  0  0  0  0  0  0  0
  -32.8554  145.1749   -3.0355 H   0  0  0  0  0  0  0  0  0  0  0  0
  -32.5211  147.1254   -1.5172 H   0  0  0  0  0  0  0  0  0  0  0  0
  -34.4777  148.1735   -0.3835 H   0  0  0  0  0  0  0  0  0  0  0  0
  -41.4105  147.8313    4.5874 H   0  0  0  0  0  0  0  0  0  0  0  0
  -38.8761  152.3856    4.2144 H   0  0  0  0  0  0  0  0  0  0  0  0
  -38.3457  154.7272    4.7505 H   0  0  0  0  0  0  0  0  0  0  0  0
  -34.4630  155.5800    8.1980 H   0  0  0  0  0  0  0  0  0  0  0  0
  -33.6629  157.5860    7.2505 H   0  0  0  0  0  0  0  0  0  0  0  0
  -33.6073  156.2976    6.0001 H   0  0  0  0  0  0  0  0  0  0  0  0
  -34.9491  157.4918    6.0001 H   0  0  0  0  0  0  0  0  0  0  0  0
  -34.6483  153.4518    7.7118 H   0  0  0  0  0  0  0  0  0  0  0  0
  1  2  1  0
  2  3  1  0
  3  4  1  0
  4  5  2  0
  4  6  1  0
  6  7  1  0
  7  8  1  0
  8  9  2  0
  9 10  1  0
 10 11  1  0
 11 12  2  0
 11 13  1  0
 13 14  1  0
 14 15  2  0
 15 16  1  0
 16 17  2  0
 17 18  1  0
 18 19  2  0
  9 20  1  0
 20 21  1  0
 20 22  2  0
 22 23  1  0
 23 24  1  0
  6 25  2  0
 25 26  1  0
 26 27  2  0
 27 28  1  0
 28 29  2  0
 29 30  1  0
 30 31  1  0
 29 32  1  0
 32 33  2  0
 33  3  1  0
 23  7  2  0
 33 26  1  0
 19 14  1  0
  1 34  1  0
  1 35  1  0
  1 36  1  0
  2 37  1  0
  2 38  1  0
  8 39  1  0
 10 40  1  0
 13 41  1  0
 15 42  1  0
 16 43  1  0
 17 44  1  0
 18 45  1  0
 19 46  1  0
 22 47  1  0
 25 48  1  0
 27 49  1  0
 30 50  1  0
 31 51  1  0
 31 52  1  0
 31 53  1  0
 32 54  1  0
M  END
>  <meeko>  (7) 
{"is_sidechain": false}

>  <vina_affinity_kcal_mol>  (7) 
-8.34

>  <pose_rank>  (7) 
7

$$$$

     RDKit          3D

 54 57  0  0  0  0  0  0  0  0999 V2000
  -34.3910  150.1250    9.0180 C   0  0  0  0  0  0  0  0  0  0  0  0
  -35.7850  150.7310    8.9410 C   0  0  0  0  0  0  0  0  0  0  0  0
  -36.1440  151.1210    7.5790 N   0  0  0  0  0  0  0  0  0  0  0  0
  -35.9590  152.4610    7.2280 C   0  0  0  0  0  0  0  0  0  0  0  0
  -35.5500  153.3140    8.0160 O   0  0  0  0  0  0  0  0  0  0  0  0
  -36.2900  152.8590    5.8210 C   0  0  0  0  0  0  0  0  0  0  0  0
  -36.0550  154.2450    5.3710 C   0  0  0  0  0  0  0  0  0  0  0  0
  -37.1650  154.9990    4.9450 C   0  0  0  0  0  0  0  0  0  0  0  0
  -37.0090  156.3100    4.4780 C   0  0  0  0  0  0  0  0  0  0  0  0
  -38.1710  157.0050    4.0750 N   0  0  0  0  0  0  0  0  0  0  0  0
  -38.3000  157.6870    2.8710 C   0  0  0  0  0  0  0  0  0  0  0  0
  -37.5270  157.5750    1.9290 O   0  0  0  0  0  0  0  0  0  0  0  0
  -39.4520  158.4560    2.8940 N   0  0  0  0  0  0  0  0  0  0  0  0
  -40.0150  159.1930    1.8320 C   0  0  0  0  0  0  0  0  0  0  0  0
  -39.2660  159.9280    0.9130 C   0  0  0  0  0  0  0  0  0  0  0  0
  -39.8990  160.6220   -0.1230 C   0  0  0  0  0  0  0  0  0  0  0  0
  -41.2860  160.5840   -0.2500 C   0  0  0  0  0  0  0  0  0  0  0  0
  -42.0420  159.8480    0.6580 C   0  0  0  0  0  0  0  0  0  0  0  0
  -41.4090  159.1540    1.6920 C   0  0  0  0  0  0  0  0  0  0  0  0
  -35.7310  156.8800    4.4880 C   0  0  0  0  0  0  0  0  0  0  0  0
  -35.5410  158.1690    4.1750 F   0  0  0  0  0  0  0  0  0  0  0  0
  -34.6220  156.1520    4.9140 C   0  0  0  0  0  0  0  0  0  0  0  0
  -34.7800  154.8360    5.3500 C   0  0  0  0  0  0  0  0  0  0  0  0
  -33.2250  153.9140    5.9350 Br  0  0  0  0  0  0  0  0  0  0  0  0
  -36.8180  151.9740    4.9640 C   0  0  0  0  0  0  0  0  0  0  0  0
  -37.0540  150.5990    5.3820 C   0  0  0  0  0  0  0  0  0  0  0  0
  -37.6060  149.6680    4.5130 C   0  0  0  0  0  0  0  0  0  0  0  0
  -37.8560  148.3810    4.8380 N   0  0  0  0  0  0  0  0  0  0  0  0
  -37.5530  147.9760    6.0840 C   0  0  0  0  0  0  0  0  0  0  0  0
  -37.7640  146.6420    6.4720 N   0  0  0  0  0  0  0  0  0  0  0  0
  -37.6000  146.3990    7.8970 C   0  0  0  0  0  0  0  0  0  0  0  0
  -36.9790  148.8460    7.0140 C   0  0  0  0  0  0  0  0  0  0  0  0
  -36.7230  150.1770    6.6700 C   0  0  0  0  0  0  0  0  0  0  0  0
  -34.1033  149.9999   10.0723 H   0  0  0  0  0  0  0  0  0  0  0  0
  -34.3892  149.1449    8.5187 H   0  0  0  0  0  0  0  0  0  0  0  0
  -33.6730  150.7922    8.5187 H   0  0  0  0  0  0  0  0  0  0  0  0
  -36.5137  149.9897    9.3007 H   0  0  0  0  0  0  0  0  0  0  0  0
  -35.7938  151.6371    9.5647 H   0  0  0  0  0  0  0  0  0  0  0  0
  -38.1694  154.5518    4.9795 H   0  0  0  0  0  0  0  0  0  0  0  0
  -39.0480  156.6880    4.4600 H   0  0  0  0  0  0  0  0  0  0  0  0
  -39.8170  158.6500    3.8140 H   0  0  0  0  0  0  0  0  0  0  0  0
  -38.1703  159.9619    1.0038 H   0  0  0  0  0  0  0  0  0  0  0  0
  -39.2991  161.2005   -0.8409 H   0  0  0  0  0  0  0  0  0  0  0  0
  -41.7814  161.1332   -1.0642 H   0  0  0  0  0  0  0  0  0  0  0  0
  -43.1372  159.8129    0.5614 H   0  0  0  0  0  0  0  0  0  0  0  0
  -42.0112  158.5706    2.4041 H   0  0  0  0  0  0  0  0  0  0  0  0
  -33.6237  156.6139    4.9066 H   0  0  0  0  0  0  0  0  0  0  0  0
  -37.0740  152.2874    3.9411 H   0  0  0  0  0  0  0  0  0  0  0  0
  -37.8559  149.9995    3.4944 H   0  0  0  0  0  0  0  0  0  0  0  0
  -37.1700  146.0320    5.9170 H   0  0  0  0  0  0  0  0  0  0  0  0
  -38.1269  147.1798    8.4651 H   0  0  0  0  0  0  0  0  0  0  0  0
  -38.0190  145.4143    8.1517 H   0  0  0  0  0  0  0  0  0  0  0  0
  -36.5301  146.4192    8.1517 H   0  0  0  0  0  0  0  0  0  0  0  0
  -36.7273  148.4825    8.0212 H   0  0  0  0  0  0  0  0  0  0  0  0
  1  2  1  0
  2  3  1  0
  3  4  1  0
  4  5  2  0
  4  6  1  0
  6  7  1  0
  7  8  1  0
  8  9  2  0
  9 10  1  0
 10 11  1  0
 11 12  2  0
 11 13  1  0
 13 14  1  0
 14 15  2  0
 15 16  1  0
 16 17  2  0
 17 18  1  0
 18 19  2  0
  9 20  1  0
 20 21  1  0
 20 22  2  0
 22 23  1  0
 23 24  1  0
  6 25  2  0
 25 26  1  0
 26 27  2  0
 27 28  1  0
 28 29  2  0
 29 30  1  0
 30 31  1  0
 29 32  1  0
 32 33  2  0
 33  3  1  0
 23  7  2  0
 33 26  1  0
 19 14  1  0
  1 34  1  0
  1 35  1  0
  1 36  1  0
  2 37  1  0
  2 38  1  0
  8 39  1  0
 10 40  1  0
 13 41  1  0
 15 42  1  0
 16 43  1  0
 17 44  1  0
 18 45  1  0
 19 46  1  0
 22 47  1  0
 25 48  1  0
 27 49  1  0
 30 50  1  0
 31 51  1  0
 31 52  1  0
 31 53  1  0
 32 54  1  0
M  END
>  <meeko>  (8) 
{"is_sidechain": false}

>  <vina_affinity_kcal_mol>  (8) 
-8.285

>  <pose_rank>  (8) 
8

$$$$

     RDKit          3D

 54 57  0  0  0  0  0  0  0  0999 V2000
  -39.2710  146.9140    1.8220 C   0  0  0  0  0  0  0  0  0  0  0  0
  -38.4700  148.1250    1.3670 C   0  0  0  0  0  0  0  0  0  0  0  0
  -37.1550  148.1890    2.0030 N   0  0  0  0  0  0  0  0  0  0  0  0
  -37.0850  148.7860    3.2650 C   0  0  0  0  0  0  0  0  0  0  0  0
  -38.0600  149.2820    3.8320 O   0  0  0  0  0  0  0  0  0  0  0  0
  -35.7470  148.8220    3.9390 C   0  0  0  0  0  0  0  0  0  0  0  0
  -35.6190  149.3800    5.3000 C   0  0  0  0  0  0  0  0  0  0  0  0
  -35.2970  150.7440    5.4280 C   0  0  0  0  0  0  0  0  0  0  0  0
  -35.1320  151.3310    6.6880 C   0  0  0  0  0  0  0  0  0  0  0  0
  -34.8160  152.7070    6.7360 N   0  0  0  0  0  0  0  0  0  0  0  0
  -35.6680  153.7240    6.3210 C   0  0  0  0  0  0  0  0  0  0  0  0
  -36.8600  153.5720    6.0900 O   0  0  0  0  0  0  0  0  0  0  0  0
  -34.9710  154.9200    6.2660 N   0  0  0  0  0  0  0  0  0  0  0  0
  -35.4910  156.2070    6.0200 C   0  0  0  0  0  0  0  0  0  0  0  0
  -35.9770  157.0530    7.0170 C   0  0  0  0  0  0  0  0  0  0  0  0
  -36.4650  158.3240    6.6930 C   0  0  0  0  0  0  0  0  0  0  0  0
  -36.4670  158.7580    5.3690 C   0  0  0  0  0  0  0  0  0  0  0  0
  -35.9790  157.9240    4.3670 C   0  0  0  0  0  0  0  0  0  0  0  0
  -35.4910  156.6550    4.6920 C   0  0  0  0  0  0  0  0  0  0  0  0
  -35.3440  150.5470    7.8280 C   0  0  0  0  0  0  0  0  0  0  0  0
  -35.3270  151.0840    9.0550 F   0  0  0  0  0  0  0  0  0  0  0  0
  -35.6720  149.1970    7.7210 C   0  0  0  0  0  0  0  0  0  0  0  0
  -35.8060  148.6120    6.4620 C   0  0  0  0  0  0  0  0  0  0  0  0
  -36.2750  146.7710    6.3960 Br  0  0  0  0  0  0  0  0  0  0  0  0
  -34.6510  148.3680    3.3130 C   0  0  0  0  0  0  0  0  0  0  0  0
  -34.7510  147.8080    1.9730 C   0  0  0  0  0  0  0  0  0  0  0  0
  -33.6290  147.3390    1.3040 C   0  0  0  0  0  0  0  0  0  0  0  0
  -33.6510  146.8130    0.0600 N   0  0  0  0  0  0  0  0  0  0  0  0
  -34.8360  146.7420   -0.5710 C   0  0  0  0  0  0  0  0  0  0  0  0
  -34.9270  146.1790   -1.8570 N   0  0  0  0  0  0  0  0  0  0  0  0
  -33.7140  145.5170   -2.3090 C   0  0  0  0  0  0  0  0  0  0  0  0
  -36.0150  147.1760    0.0370 C   0  0  0  0  0  0  0  0  0  0  0  0
  -35.9840  147.7190    1.3260 C   0  0  0  0  0  0  0  0  0  0  0  0
  -39.2929  146.8808    2.9213 H   0  0  0  0  0  0  0  0  0  0  0  0
  -40.2987  146.9883    1.4368 H   0  0  0  0  0  0  0  0  0  0  0  0
  -38.8005  145.9974    1.4368 H   0  0  0  0  0  0  0  0  0  0  0  0
  -38.3338  148.0702    0.2768 H   0  0  0  0  0  0  0  0  0  0  0  0
  -39.0289  149.0272    1.6562 H   0  0  0  0  0  0  0  0  0  0  0  0
  -35.1731  151.3583    4.5240 H   0  0  0  0  0  0  0  0  0  0  0  0
  -34.1440  152.9960    7.4310 H   0  0  0  0  0  0  0  0  0  0  0  0
  -33.9680  154.8270    6.2170 H   0  0  0  0  0  0  0  0  0  0  0  0
  -35.9767  156.7188    8.0650 H   0  0  0  0  0  0  0  0  0  0  0  0
  -36.8483  158.9826    7.4863 H   0  0  0  0  0  0  0  0  0  0  0  0
  -36.8530  159.7566    5.1163 H   0  0  0  0  0  0  0  0  0  0  0  0
  -35.9774  158.2632    3.3206 H   0  0  0  0  0  0  0  0  0  0  0  0
  -35.1029  156.0012    3.8971 H   0  0  0  0  0  0  0  0  0  0  0  0
  -35.8250  148.5937    8.6280 H   0  0  0  0  0  0  0  0  0  0  0  0
  -33.6731  148.4190    3.8140 H   0  0  0  0  0  0  0  0  0  0  0  0
  -32.6594  147.3995    1.8200 H   0  0  0  0  0  0  0  0  0  0  0  0
  -35.2340  146.8900   -2.5140 H   0  0  0  0  0  0  0  0  0  0  0  0
  -33.1251  145.1956   -1.4373 H   0  0  0  0  0  0  0  0  0  0  0  0
  -33.9799  144.6389   -2.9158 H   0  0  0  0  0  0  0  0  0  0  0  0
  -33.1193  146.2157   -2.9158 H   0  0  0  0  0  0  0  0  0  0  0  0
  -36.9717  147.0908   -0.4991 H   0  0  0  0  0  0  0  0  0  0  0  0
  1  2  1  0
  2  3  1  0
  3  4  1  0
  4  5  2  0
  4  6  1  0
  6  7  1  0
  7  8  1  0
  8  9  2  0
  9 10  1  0
 10 11  1  0
 11 12  2  0
 11 13  1  0
 13 14  1  0
 14 15  2  0
 15 16  1  0
 16 17  2  0
 17 18  1  0
 18 19  2  0
  9 20  1  0
 20 21  1  0
 20 22  2  0
 22 23  1  0
 23 24  1  0
  6 25  2  0
 25 26  1  0
 26 27  2  0
 27 28  1  0
 28 29  2  0
 29 30  1  0
 30 31  1  0
 29 32  1  0
 32 33  2  0
 33  3  1  0
 23  7  2  0
 33 26  1  0
 19 14  1  0
  1 34  1  0
  1 35  1  0
  1 36  1  0
  2 37  1  0
  2 38  1  0
  8 39  1  0
 10 40  1  0
 13 41  1  0
 15 42  1  0
 16 43  1  0
 17 44  1  0
 18 45  1  0
 19 46  1  0
 22 47  1  0
 25 48  1  0
 27 49  1  0
 30 50  1  0
 31 51  1  0
 31 52  1  0
 31 53  1  0
 32 54  1  0
M  END
>  <meeko>  (9) 
{"is_sidechain": false}

>  <vina_affinity_kcal_mol>  (9) 
-8.232

>  <pose_rank>  (9) 
9

$$$$

     RDKit          3D

 54 57  0  0  0  0  0  0  0  0999 V2000
  -40.6290  145.2710    2.0750 C   0  0  0  0  0  0  0  0  0  0  0  0
  -40.5900  146.7880    1.9510 C   0  0  0  0  0  0  0  0  0  0  0  0
  -39.2230  147.3010    1.8880 N   0  0  0  0  0  0  0  0  0  0  0  0
  -38.6050  147.6230    3.0990 C   0  0  0  0  0  0  0  0  0  0  0  0
  -39.1680  147.5290    4.1900 O   0  0  0  0  0  0  0  0  0  0  0  0
  -37.1900  148.1170    3.0440 C   0  0  0  0  0  0  0  0  0  0  0  0
  -36.4610  148.4110    4.2930 C   0  0  0  0  0  0  0  0  0  0  0  0
  -36.6720  149.6620    4.9030 C   0  0  0  0  0  0  0  0  0  0  0  0
  -35.9910  150.0180    6.0730 C   0  0  0  0  0  0  0  0  0  0  0  0
  -36.2620  151.2880    6.6300 N   0  0  0  0  0  0  0  0  0  0  0  0
  -35.6270  152.4640    6.2500 C   0  0  0  0  0  0  0  0  0  0  0  0
  -34.9390  152.5820    5.2440 O   0  0  0  0  0  0  0  0  0  0  0  0
  -35.9380  153.4720    7.1480 N   0  0  0  0  0  0  0  0  0  0  0  0
  -35.6070  154.8390    7.0550 C   0  0  0  0  0  0  0  0  0  0  0  0
  -34.3000  155.3260    7.0850 C   0  0  0  0  0  0  0  0  0  0  0  0
  -34.0520  156.6980    6.9720 C   0  0  0  0  0  0  0  0  0  0  0  0
  -35.1090  157.5930    6.8250 C   0  0  0  0  0  0  0  0  0  0  0  0
  -36.4170  157.1170    6.7880 C   0  0  0  0  0  0  0  0  0  0  0  0
  -36.6640  155.7460    6.8990 C   0  0  0  0  0  0  0  0  0  0  0  0
  -35.1290  149.0850    6.6590 C   0  0  0  0  0  0  0  0  0  0  0  0
  -34.5500  149.3200    7.8450 F   0  0  0  0  0  0  0  0  0  0  0  0
  -34.9130  147.8390    6.0750 C   0  0  0  0  0  0  0  0  0  0  0  0
  -35.5730  147.5020    4.8930 C   0  0  0  0  0  0  0  0  0  0  0  0
  -35.2440  145.7770    4.1670 Br  0  0  0  0  0  0  0  0  0  0  0  0
  -36.5780  148.3120    1.8670 C   0  0  0  0  0  0  0  0  0  0  0  0
  -37.2730  148.0230    0.6210 C   0  0  0  0  0  0  0  0  0  0  0  0
  -36.6610  148.2250   -0.6080 C   0  0  0  0  0  0  0  0  0  0  0  0
  -37.2500  147.9830   -1.7990 N   0  0  0  0  0  0  0  0  0  0  0  0
  -38.5110  147.5190   -1.7940 C   0  0  0  0  0  0  0  0  0  0  0  0
  -39.1680  147.2220   -3.0010 N   0  0  0  0  0  0  0  0  0  0  0  0
  -40.4470  146.5500   -2.8380 C   0  0  0  0  0  0  0  0  0  0  0  0
  -39.1930  147.2730   -0.6000 C   0  0  0  0  0  0  0  0  0  0  0  0
  -38.5760  147.5250    0.6290 C   0  0  0  0  0  0  0  0  0  0  0  0
  -40.6362  144.9901    3.1385 H   0  0  0  0  0  0  0  0  0  0  0  0
  -41.5373  144.8865    1.5880 H   0  0  0  0  0  0  0  0  0  0  0  0
  -39.7416  144.8404    1.5880 H   0  0  0  0  0  0  0  0  0  0  0  0
  -41.1216  147.0824    1.0341 H   0  0  0  0  0  0  0  0  0  0  0  0
  -41.0696  147.2127    2.8452 H   0  0  0  0  0  0  0  0  0  0  0  0
  -37.3830  150.3707    4.4533 H   0  0  0  0  0  0  0  0  0  0  0  0
  -37.1840  151.4290    7.0160 H   0  0  0  0  0  0  0  0  0  0  0  0
  -36.2770  153.1550    8.0440 H   0  0  0  0  0  0  0  0  0  0  0  0
  -33.4588  154.6263    7.1983 H   0  0  0  0  0  0  0  0  0  0  0  0
  -33.0178  157.0717    6.9994 H   0  0  0  0  0  0  0  0  0  0  0  0
  -34.9113  158.6716    6.7385 H   0  0  0  0  0  0  0  0  0  0  0  0
  -37.2553  157.8196    6.6715 H   0  0  0  0  0  0  0  0  0  0  0  0
  -37.6989  155.3748    6.8636 H   0  0  0  0  0  0  0  0  0  0  0  0
  -34.2234  147.1222    6.5448 H   0  0  0  0  0  0  0  0  0  0  0  0
  -35.5460  148.6921    1.8429 H   0  0  0  0  0  0  0  0  0  0  0  0
  -35.6294  148.6069   -0.6124 H   0  0  0  0  0  0  0  0  0  0  0  0
  -38.5420  146.6950   -3.6030 H   0  0  0  0  0  0  0  0  0  0  0  0
  -40.6666  146.4346   -1.7663 H   0  0  0  0  0  0  0  0  0  0  0  0
  -41.2388  147.1486   -3.3122 H   0  0  0  0  0  0  0  0  0  0  0  0
  -40.4033  145.5584   -3.3122 H   0  0  0  0  0  0  0  0  0  0  0  0
  -40.2198  146.8794   -0.6268 H   0  0  0  0  0  0  0  0  0  0  0  0
  1  2  1  0
  2  3  1  0
  3  4  1  0
  4  5  2  0
  4  6  1  0
  6  7  1  0
  7  8  1  0
  8  9  2  0
  9 10  1  0
 10 11  1  0
 11 12  2  0
 11 13  1  0
 13 14  1  0
 14 15  2  0
 15 16  1  0
 16 17  2  0
 17 18  1  0
 18 19  2  0
  9 20  1  0
 20 21  1  0
 20 22  2  0
 22 23  1  0
 23 24  1  0
  6 25  2  0
 25 26  1  0
 26 27  2  0
 27 28  1  0
 28 29  2  0
 29 30  1  0
 30 31  1  0
 29 32  1  0
 32 33  2  0
 33  3  1  0
 23  7  2  0
 33 26  1  0
 19 14  1  0
  1 34  1  0
  1 35  1  0
  1 36  1  0
  2 37  1  0
  2 38  1  0
  8 39  1  0
 10 40  1  0
 13 41  1  0
 15 42  1  0
 16 43  1  0
 17 44  1  0
 18 45  1  0
 19 46  1  0
 22 47  1  0
 25 48  1  0
 27 49  1  0
 30 50  1  0
 31 51  1  0
 31 52  1  0
 31 53  1  0
 32 54  1  0
M  END
>  <meeko>  (10) 
{"is_sidechain": false}

>  <vina_affinity_kcal_mol>  (10) 
-7.945

>  <pose_rank>  (10) 
10

$$$$
