
     RDKit          3D

 73 77  0  0  0  0  0  0  0  0999 V2000
   25.8800    2.4490   10.8220 C   0  0  0  0  0  0  0  0  0  0  0  0
   25.2150    1.7020   11.8430 O   0  0  0  0  0  0  0  0  0  0  0  0
   25.9650    0.7050   12.3720 C   0  0  0  0  0  0  0  0  0  0  0  0
   27.0260    0.8410   12.9600 O   0  0  0  0  0  0  0  0  0  0  0  0
   25.3210   -0.6180   12.1450 C   0  0  0  0  0  0  0  0  0  0  0  0
   26.0670   -1.8120   12.0420 C   0  0  0  0  0  0  0  0  0  0  0  0
   25.4330   -3.0460   11.8280 C   0  0  0  0  0  0  0  0  0  0  0  0
   24.0540   -3.0780   11.7160 C   0  0  0  0  0  0  0  0  0  0  0  0
   23.3300   -1.8820   11.8210 C   0  0  0  0  0  0  0  0  0  0  0  0
   23.9260   -0.6530   12.0320 C   0  0  0  0  0  0  0  0  0  0  0  0
   21.9680   -2.1150   11.6830 N   0  0  0  0  0  0  0  0  0  0  0  0
   21.7070   -3.4550   11.4750 C   0  0  0  0  0  0  0  0  0  0  0  0
   20.6180   -3.9720   11.2930 O   0  0  0  0  0  0  0  0  0  0  0  0
   23.0530   -4.1410   11.4990 C   0  0  0  0  0  0  0  0  0  0  0  0
   23.1420   -5.4810   11.3250 C   0  0  0  0  0  0  0  0  0  0  0  0
   22.0300   -6.3220   11.1700 N   0  0  0  0  0  0  0  0  0  0  0  0
   21.1540   -6.7200   12.2050 C   0  0  0  0  0  0  0  0  0  0  0  0
   19.7740   -6.7800   12.0280 C   0  0  0  0  0  0  0  0  0  0  0  0
   18.9260   -7.1300   13.0880 C   0  0  0  0  0  0  0  0  0  0  0  0
   19.4290   -7.4320   14.3660 C   0  0  0  0  0  0  0  0  0  0  0  0
   18.5360   -7.7740   15.4500 N   0  0  0  0  0  0  0  0  0  0  0  0
   18.1990   -9.1920   15.6050 C   0  0  0  0  0  0  0  0  0  0  0  0
   18.0890   -6.8060   16.3840 C   0  0  0  0  0  0  0  0  0  0  0  0
   17.9700   -7.0200   17.5920 O   0  0  0  0  0  0  0  0  0  0  0  0
   17.7280   -5.4200   15.7910 C   0  0  0  0  0  0  0  0  0  0  0  0
   18.6680   -4.3230   16.0890 N   0  0  0  0  0  0  0  0  0  0  0  0
   19.4820   -3.8920   14.9400 C   0  0  0  0  0  0  0  0  0  0  0  0
   21.0090   -3.8410   15.1990 C   0  0  0  0  0  0  0  0  0  0  0  0
   21.4180   -3.1500   16.4370 N   0  0  0  0  0  0  0  0  0  0  0  0
   21.6370   -1.7240   16.2150 C   0  0  0  0  0  0  0  0  0  0  0  0
   20.4450   -3.3680   17.5290 C   0  0  0  0  0  0  0  0  0  0  0  0
   19.4770   -4.5510   17.2950 C   0  0  0  0  0  0  0  0  0  0  0  0
   20.8170   -7.3580   14.5320 C   0  0  0  0  0  0  0  0  0  0  0  0
   21.6660   -7.0070   13.4710 C   0  0  0  0  0  0  0  0  0  0  0  0
   24.4780   -6.1140   11.3390 C   0  0  0  0  0  0  0  0  0  0  0  0
   25.4700   -5.7060   10.4360 C   0  0  0  0  0  0  0  0  0  0  0  0
   26.7320   -6.3030   10.4600 C   0  0  0  0  0  0  0  0  0  0  0  0
   27.0100   -7.3080   11.3860 C   0  0  0  0  0  0  0  0  0  0  0  0
   26.0280   -7.7240   12.2840 C   0  0  0  0  0  0  0  0  0  0  0  0
   24.7650   -7.1300   12.2620 C   0  0  0  0  0  0  0  0  0  0  0  0
   26.5432    3.1940   11.2858 H   0  0  0  0  0  0  0  0  0  0  0  0
   26.4751    1.7668   10.1972 H   0  0  0  0  0  0  0  0  0  0  0  0
   25.1335    2.9612   10.1972 H   0  0  0  0  0  0  0  0  0  0  0  0
   27.1628   -1.7748   12.1309 H   0  0  0  0  0  0  0  0  0  0  0  0
   26.0222   -3.9717   11.7507 H   0  0  0  0  0  0  0  0  0  0  0  0
   23.3254    0.2654   12.1085 H   0  0  0  0  0  0  0  0  0  0  0  0
   21.2410   -1.4160   11.7110 H   0  0  0  0  0  0  0  0  0  0  0  0
   22.2580   -7.1220   10.5670 H   0  0  0  0  0  0  0  0  0  0  0  0
   19.3432   -6.5495   11.0424 H   0  0  0  0  0  0  0  0  0  0  0  0
   17.8403   -7.1694   12.9158 H   0  0  0  0  0  0  0  0  0  0  0  0
   18.1401   -9.4400   16.6751 H   0  0  0  0  0  0  0  0  0  0  0  0
   17.2282   -9.3924   15.1281 H   0  0  0  0  0  0  0  0  0  0  0  0
   18.9758   -9.8078   15.1281 H   0  0  0  0  0  0  0  0  0  0  0  0
   17.6712   -5.5265   14.6976 H   0  0  0  0  0  0  0  0  0  0  0  0
   16.7782   -5.1331   16.2660 H   0  0  0  0  0  0  0  0  0  0  0  0
   19.3000   -4.5924   14.1115 H   0  0  0  0  0  0  0  0  0  0  0  0
   19.1744   -2.8598   14.7164 H   0  0  0  0  0  0  0  0  0  0  0  0
   21.3794   -4.8755   15.2495 H   0  0  0  0  0  0  0  0  0  0  0  0
   21.4377   -3.2580   14.3706 H   0  0  0  0  0  0  0  0  0  0  0  0
   21.7160   -1.2099   17.1843 H   0  0  0  0  0  0  0  0  0  0  0  0
   22.5678   -1.5801   15.6467 H   0  0  0  0  0  0  0  0  0  0  0  0
   20.7923   -1.3074   15.6467 H   0  0  0  0  0  0  0  0  0  0  0  0
   21.0053   -3.5601   18.4559 H   0  0  0  0  0  0  0  0  0  0  0  0
   19.8251   -2.4609   17.5830 H   0  0  0  0  0  0  0  0  0  0  0  0
   20.0591   -5.4761   17.1709 H   0  0  0  0  0  0  0  0  0  0  0  0
   18.8061   -4.6388   18.1623 H   0  0  0  0  0  0  0  0  0  0  0  0
   21.2526   -7.5802   15.5173 H   0  0  0  0  0  0  0  0  0  0  0  0
   22.7518   -6.9574   13.6400 H   0  0  0  0  0  0  0  0  0  0  0  0
   25.2532   -4.9124    9.7058 H   0  0  0  0  0  0  0  0  0  0  0  0
   27.5067   -5.9807    9.7487 H   0  0  0  0  0  0  0  0  0  0  0  0
   28.0064   -7.7736   11.4080 H   0  0  0  0  0  0  0  0  0  0  0  0
   26.2485   -8.5204   13.0100 H   0  0  0  0  0  0  0  0  0  0  0  0
   23.9919   -7.4601   12.9714 H   0  0  0  0  0  0  0  0  0  0  0  0
  1  2  1  0
  2  3  1  0
  3  4  2  0
  3  5  1  0
  5  6  1  0
  6  7  2  0
  7  8  1  0
  8  9  2  0
  9 10  1  0
  9 11  1  0
 11 12  1  0
 12 13  2  0
 12 14  1  0
 14 15  2  0
 15 16  1  0
 16 17  1  0
 17 18  1  0
 18 19  2  0
 19 20  1  0
 20 21  1  0
 21 22  1  0
 21 23  1  0
 23 24  2  0
 23 25  1  0
 25 26  1  0
 26 27  1  0
 27 28  1  0
 28 29  1  0
 29 30  1  0
 29 31  1  0
 31 32  1  0
 20 33  2  0
 33 34  1  0
 15 35  1  0
 35 36  2  0
 36 37  1  0
 37 38  2  0
 38 39  1  0
 39 40  2  0
 10  5  2  0
 34 17  2  0
 40 35  1  0
 14  8  1  0
 32 26  1  0
  1 41  1  0
  1 42  1  0
  1 43  1  0
  6 44  1  0
  7 45  1  0
 10 46  1  0
 11 47  1  0
 16 48  1  0
 18 49  1  0
 19 50  1  0
 22 51  1  0
 22 52  1  0
 22 53  1  0
 25 54  1  0
 25 55  1  0
 27 56  1  0
 27 57  1  0
 28 58  1  0
 28 59  1  0
 30 60  1  0
 30 61  1  0
 30 62  1  0
 31 63  1  0
 31 64  1  0
 32 65  1  0
 32 66  1  0
 33 67  1  0
 34 68  1  0
 36 69  1  0
 37 70  1  0
 38 71  1  0
 39 72  1  0
 40 73  1  0
M  END
>  <meeko>  (1) 
{"is_sidechain": false}

>  <vina_affinity_kcal_mol>  (1) 
-6.495

>  <pose_rank>  (1) 
1

$$$$

     RDKit          3D

 73 77  0  0  0  0  0  0  0  0999 V2000
   27.0660    0.6910   12.2600 C   0  0  0  0  0  0  0  0  0  0  0  0
   26.2700    1.8680   12.1110 O   0  0  0  0  0  0  0  0  0  0  0  0
   25.1030    1.6630   11.4520 C   0  0  0  0  0  0  0  0  0  0  0  0
   24.6710    2.3400   10.5320 O   0  0  0  0  0  0  0  0  0  0  0  0
   24.3890    0.4770   11.9980 C   0  0  0  0  0  0  0  0  0  0  0  0
   23.9180    0.4270   13.3280 C   0  0  0  0  0  0  0  0  0  0  0  0
   23.2470   -0.7050   13.8180 C   0  0  0  0  0  0  0  0  0  0  0  0
   23.0530   -1.7840   12.9720 C   0  0  0  0  0  0  0  0  0  0  0  0
   23.5280   -1.7160   11.6560 C   0  0  0  0  0  0  0  0  0  0  0  0
   24.1910   -0.6160   11.1450 C   0  0  0  0  0  0  0  0  0  0  0  0
   23.2410   -2.8870   10.9660 N   0  0  0  0  0  0  0  0  0  0  0  0
   22.5760   -3.7920   11.7690 C   0  0  0  0  0  0  0  0  0  0  0  0
   22.2100   -4.9140   11.4650 O   0  0  0  0  0  0  0  0  0  0  0  0
   22.4140   -3.1080   13.1060 C   0  0  0  0  0  0  0  0  0  0  0  0
   21.7890   -3.7390   14.1280 C   0  0  0  0  0  0  0  0  0  0  0  0
   21.2090   -5.0120   14.0180 N   0  0  0  0  0  0  0  0  0  0  0  0
   19.9670   -5.2950   13.4060 C   0  0  0  0  0  0  0  0  0  0  0  0
   19.0340   -4.3010   13.1240 C   0  0  0  0  0  0  0  0  0  0  0  0
   17.7890   -4.6190   12.5620 C   0  0  0  0  0  0  0  0  0  0  0  0
   17.4320   -5.9450   12.2640 C   0  0  0  0  0  0  0  0  0  0  0  0
   16.1360   -6.2540   11.7010 N   0  0  0  0  0  0  0  0  0  0  0  0
   16.1260   -6.9930   10.4360 C   0  0  0  0  0  0  0  0  0  0  0  0
   14.9330   -5.9510   12.3860 C   0  0  0  0  0  0  0  0  0  0  0  0
   14.4710   -4.8130   12.4940 O   0  0  0  0  0  0  0  0  0  0  0  0
   14.2050   -7.1590   13.0290 C   0  0  0  0  0  0  0  0  0  0  0  0
   14.7780   -7.6640   14.2910 N   0  0  0  0  0  0  0  0  0  0  0  0
   15.2480   -6.6110   15.2080 C   0  0  0  0  0  0  0  0  0  0  0  0
   16.7000   -6.7900   15.7220 C   0  0  0  0  0  0  0  0  0  0  0  0
   17.0300   -8.1350   16.2310 N   0  0  0  0  0  0  0  0  0  0  0  0
   16.7500   -8.2570   17.6590 C   0  0  0  0  0  0  0  0  0  0  0  0
   16.3340   -9.1920   15.4670 C   0  0  0  0  0  0  0  0  0  0  0  0
   15.7710   -8.7290   14.1030 C   0  0  0  0  0  0  0  0  0  0  0  0
   18.3750   -6.9360   12.5620 C   0  0  0  0  0  0  0  0  0  0  0  0
   19.6210   -6.6180   13.1240 C   0  0  0  0  0  0  0  0  0  0  0  0
   21.6640   -3.0430   15.4270 C   0  0  0  0  0  0  0  0  0  0  0  0
   21.6300   -3.7720   16.6240 C   0  0  0  0  0  0  0  0  0  0  0  0
   21.5200   -3.1090   17.8480 C   0  0  0  0  0  0  0  0  0  0  0  0
   21.4440   -1.7160   17.8820 C   0  0  0  0  0  0  0  0  0  0  0  0
   21.4730   -0.9840   16.6960 C   0  0  0  0  0  0  0  0  0  0  0  0
   21.5810   -1.6440   15.4710 C   0  0  0  0  0  0  0  0  0  0  0  0
   27.2097    0.4785   13.3297 H   0  0  0  0  0  0  0  0  0  0  0  0
   26.5566   -0.1590   11.7825 H   0  0  0  0  0  0  0  0  0  0  0  0
   28.0446    0.8473   11.7825 H   0  0  0  0  0  0  0  0  0  0  0  0
   24.0794    1.2893   13.9916 H   0  0  0  0  0  0  0  0  0  0  0  0
   22.8820   -0.7341   14.8553 H   0  0  0  0  0  0  0  0  0  0  0  0
   24.5503   -0.5997   10.1055 H   0  0  0  0  0  0  0  0  0  0  0  0
   23.4880   -3.0860   10.0080 H   0  0  0  0  0  0  0  0  0  0  0  0
   21.3010   -5.5320   14.8990 H   0  0  0  0  0  0  0  0  0  0  0  0
   19.2767   -3.2512   13.3451 H   0  0  0  0  0  0  0  0  0  0  0  0
   17.0743   -3.8104   12.3492 H   0  0  0  0  0  0  0  0  0  0  0  0
   16.1114   -8.0733   10.6426 H   0  0  0  0  0  0  0  0  0  0  0  0
   15.2315   -6.7181    9.8578 H   0  0  0  0  0  0  0  0  0  0  0  0
   17.0276   -6.7424    9.8578 H   0  0  0  0  0  0  0  0  0  0  0  0
   13.1658   -6.8583   13.2281 H   0  0  0  0  0  0  0  0  0  0  0  0
   14.3055   -7.9833   12.3076 H   0  0  0  0  0  0  0  0  0  0  0  0
   15.1891   -5.6477   14.6802 H   0  0  0  0  0  0  0  0  0  0  0  0
   14.5992   -6.6635   16.0948 H   0  0  0  0  0  0  0  0  0  0  0  0
   17.3844   -6.5643   14.8909 H   0  0  0  0  0  0  0  0  0  0  0  0
   16.8045   -6.1078   16.5785 H   0  0  0  0  0  0  0  0  0  0  0  0
   17.6094   -7.8825   18.2345 H   0  0  0  0  0  0  0  0  0  0  0  0
   15.8561   -7.6668   17.9091 H   0  0  0  0  0  0  0  0  0  0  0  0
   16.5736   -9.3136   17.9091 H   0  0  0  0  0  0  0  0  0  0  0  0
   17.0459  -10.0106   15.2853 H   0  0  0  0  0  0  0  0  0  0  0  0
   15.4706   -9.5014   16.0743 H   0  0  0  0  0  0  0  0  0  0  0  0
   16.5953   -8.3496   13.4812 H   0  0  0  0  0  0  0  0  0  0  0  0
   15.2861   -9.5843   13.6096 H   0  0  0  0  0  0  0  0  0  0  0  0
   18.1337   -7.9882   12.3507 H   0  0  0  0  0  0  0  0  0  0  0  0
   20.3363   -7.4237   13.3458 H   0  0  0  0  0  0  0  0  0  0  0  0
   21.6902   -4.8701   16.5989 H   0  0  0  0  0  0  0  0  0  0  0  0
   21.4933   -3.6845   18.7850 H   0  0  0  0  0  0  0  0  0  0  0  0
   21.3610   -1.1944   18.8469 H   0  0  0  0  0  0  0  0  0  0  0  0
   21.4108    0.1138   16.7256 H   0  0  0  0  0  0  0  0  0  0  0  0
   21.6011   -1.0644   14.5363 H   0  0  0  0  0  0  0  0  0  0  0  0
  1  2  1  0
  2  3  1  0
  3  4  2  0
  3  5  1  0
  5  6  1  0
  6  7  2  0
  7  8  1  0
  8  9  2  0
  9 10  1  0
  9 11  1  0
 11 12  1  0
 12 13  2  0
 12 14  1  0
 14 15  2  0
 15 16  1  0
 16 17  1  0
 17 18  1  0
 18 19  2  0
 19 20  1  0
 20 21  1  0
 21 22  1  0
 21 23  1  0
 23 24  2  0
 23 25  1  0
 25 26  1  0
 26 27  1  0
 27 28  1  0
 28 29  1  0
 29 30  1  0
 29 31  1  0
 31 32  1  0
 20 33  2  0
 33 34  1  0
 15 35  1  0
 35 36  2  0
 36 37  1  0
 37 38  2  0
 38 39  1  0
 39 40  2  0
 10  5  2  0
 34 17  2  0
 40 35  1  0
 14  8  1  0
 32 26  1  0
  1 41  1  0
  1 42  1  0
  1 43  1  0
  6 44  1  0
  7 45  1  0
 10 46  1  0
 11 47  1  0
 16 48  1  0
 18 49  1  0
 19 50  1  0
 22 51  1  0
 22 52  1  0
 22 53  1  0
 25 54  1  0
 25 55  1  0
 27 56  1  0
 27 57  1  0
 28 58  1  0
 28 59  1  0
 30 60  1  0
 30 61  1  0
 30 62  1  0
 31 63  1  0
 31 64  1  0
 32 65  1  0
 32 66  1  0
 33 67  1  0
 34 68  1  0
 36 69  1  0
 37 70  1  0
 38 71  1  0
 39 72  1  0
 40 73  1  0
M  END
>  <meeko>  (2) 
{"is_sidechain": false}

>  <vina_affinity_kcal_mol>  (2) 
-5.566

>  <pose_rank>  (2) 
2

$$$$

     RDKit          3D

 73 77  0  0  0  0  0  0  0  0999 V2000
   26.8680    0.8630   12.1150 C   0  0  0  0  0  0  0  0  0  0  0  0
   25.8220    1.0160   11.1530 O   0  0  0  0  0  0  0  0  0  0  0  0
   24.6300    1.3740   11.6890 C   0  0  0  0  0  0  0  0  0  0  0  0
   24.1270    2.4860   11.6420 O   0  0  0  0  0  0  0  0  0  0  0  0
   23.9840    0.2140   12.3620 C   0  0  0  0  0  0  0  0  0  0  0  0
   23.6460    0.2300   13.7330 C   0  0  0  0  0  0  0  0  0  0  0  0
   23.0370   -0.8780   14.3430 C   0  0  0  0  0  0  0  0  0  0  0  0
   22.7710   -1.9990   13.5760 C   0  0  0  0  0  0  0  0  0  0  0  0
   23.1140   -1.9960   12.2170 C   0  0  0  0  0  0  0  0  0  0  0  0
   23.7130   -0.9210   11.5890 C   0  0  0  0  0  0  0  0  0  0  0  0
   22.7710   -3.2030   11.6190 N   0  0  0  0  0  0  0  0  0  0  0  0
   22.1960   -4.0680   12.5280 C   0  0  0  0  0  0  0  0  0  0  0  0
   21.8130   -5.2060   12.3200 O   0  0  0  0  0  0  0  0  0  0  0  0
   22.1600   -3.3170   13.8390 C   0  0  0  0  0  0  0  0  0  0  0  0
   21.6440   -3.8980   14.9480 C   0  0  0  0  0  0  0  0  0  0  0  0
   21.0680   -5.1770   14.9600 N   0  0  0  0  0  0  0  0  0  0  0  0
   19.6820   -5.4500   14.9730 C   0  0  0  0  0  0  0  0  0  0  0  0
   19.1250   -6.4260   15.7960 C   0  0  0  0  0  0  0  0  0  0  0  0
   17.7520   -6.7090   15.7510 C   0  0  0  0  0  0  0  0  0  0  0  0
   16.8870   -6.0270   14.8780 C   0  0  0  0  0  0  0  0  0  0  0  0
   15.4770   -6.3470   14.8360 N   0  0  0  0  0  0  0  0  0  0  0  0
   14.8040   -6.5350   16.1240 C   0  0  0  0  0  0  0  0  0  0  0  0
   14.7540   -6.3740   13.6170 C   0  0  0  0  0  0  0  0  0  0  0  0
   14.1970   -5.3890   13.1260 O   0  0  0  0  0  0  0  0  0  0  0  0
   14.6810   -7.7520   12.9110 C   0  0  0  0  0  0  0  0  0  0  0  0
   15.8160   -8.0920   12.0320 N   0  0  0  0  0  0  0  0  0  0  0  0
   16.8530   -8.9210   12.6720 C   0  0  0  0  0  0  0  0  0  0  0  0
   18.2990   -8.3770   12.5430 C   0  0  0  0  0  0  0  0  0  0  0  0
   18.7010   -7.9650   11.1850 N   0  0  0  0  0  0  0  0  0  0  0  0
   19.2910   -9.0700   10.4360 C   0  0  0  0  0  0  0  0  0  0  0  0
   17.5720   -7.3690   10.4400 C   0  0  0  0  0  0  0  0  0  0  0  0
   16.3800   -6.9350   11.3250 C   0  0  0  0  0  0  0  0  0  0  0  0
   17.4610   -5.0560   14.0500 C   0  0  0  0  0  0  0  0  0  0  0  0
   18.8350   -4.7720   14.0950 C   0  0  0  0  0  0  0  0  0  0  0  0
   21.6410   -3.1370   16.2160 C   0  0  0  0  0  0  0  0  0  0  0  0
   20.5280   -2.3670   16.5820 C   0  0  0  0  0  0  0  0  0  0  0  0
   20.5290   -1.6580   17.7840 C   0  0  0  0  0  0  0  0  0  0  0  0
   21.6390   -1.7150   18.6270 C   0  0  0  0  0  0  0  0  0  0  0  0
   22.7510   -2.4750   18.2690 C   0  0  0  0  0  0  0  0  0  0  0  0
   22.7550   -3.1840   17.0670 C   0  0  0  0  0  0  0  0  0  0  0  0
   26.4457    0.9248   13.1288 H   0  0  0  0  0  0  0  0  0  0  0  0
   27.3517   -0.1154   11.9783 H   0  0  0  0  0  0  0  0  0  0  0  0
   27.6117    1.6619   11.9783 H   0  0  0  0  0  0  0  0  0  0  0  0
   23.8636    1.1258   14.3331 H   0  0  0  0  0  0  0  0  0  0  0  0
   22.7759   -0.8557   15.4113 H   0  0  0  0  0  0  0  0  0  0  0  0
   23.9679   -0.9558   10.5195 H   0  0  0  0  0  0  0  0  0  0  0  0
   22.9240   -3.4500   10.6520 H   0  0  0  0  0  0  0  0  0  0  0  0
   21.5610   -5.7930   15.6190 H   0  0  0  0  0  0  0  0  0  0  0  0
   19.7709   -6.9826   16.4909 H   0  0  0  0  0  0  0  0  0  0  0  0
   17.3420   -7.4839   16.4154 H   0  0  0  0  0  0  0  0  0  0  0  0
   15.5136   -6.3368   16.9408 H   0  0  0  0  0  0  0  0  0  0  0  0
   13.9550   -5.8396   16.1990 H   0  0  0  0  0  0  0  0  0  0  0  0
   14.4383   -7.5697   16.1990 H   0  0  0  0  0  0  0  0  0  0  0  0
   14.6158   -8.5257   13.6902 H   0  0  0  0  0  0  0  0  0  0  0  0
   13.8020   -7.6999   12.2517 H   0  0  0  0  0  0  0  0  0  0  0  0
   16.6130   -9.0014   13.7425 H   0  0  0  0  0  0  0  0  0  0  0  0
   16.8405   -9.8879   12.1476 H   0  0  0  0  0  0  0  0  0  0  0  0
   18.3932   -7.5033   13.2046 H   0  0  0  0  0  0  0  0  0  0  0  0
   18.9622   -9.2112   12.8155 H   0  0  0  0  0  0  0  0  0  0  0  0
   19.6899   -9.8171   11.1379 H   0  0  0  0  0  0  0  0  0  0  0  0
   18.5216   -9.5359    9.8028 H   0  0  0  0  0  0  0  0  0  0  0  0
   20.1062   -8.6898    9.8028 H   0  0  0  0  0  0  0  0  0  0  0  0
   17.9431   -6.4829    9.9041 H   0  0  0  0  0  0  0  0  0  0  0  0
   17.1935   -8.1511    9.7654 H   0  0  0  0  0  0  0  0  0  0  0  0
   16.7264   -6.1946   12.0611 H   0  0  0  0  0  0  0  0  0  0  0  0
   15.6017   -6.4963   10.6832 H   0  0  0  0  0  0  0  0  0  0  0  0
   16.8207   -4.5024   13.3475 H   0  0  0  0  0  0  0  0  0  0  0  0
   19.2508   -4.0028   13.4276 H   0  0  0  0  0  0  0  0  0  0  0  0
   19.6511   -2.3216   15.9195 H   0  0  0  0  0  0  0  0  0  0  0  0
   19.6542   -1.0540   18.0668 H   0  0  0  0  0  0  0  0  0  0  0  0
   21.6366   -1.1590   19.5761 H   0  0  0  0  0  0  0  0  0  0  0  0
   23.6261   -2.5160   18.9343 H   0  0  0  0  0  0  0  0  0  0  0  0
   23.6347   -3.7817   16.7860 H   0  0  0  0  0  0  0  0  0  0  0  0
  1  2  1  0
  2  3  1  0
  3  4  2  0
  3  5  1  0
  5  6  1  0
  6  7  2  0
  7  8  1  0
  8  9  2  0
  9 10  1  0
  9 11  1  0
 11 12  1  0
 12 13  2  0
 12 14  1  0
 14 15  2  0
 15 16  1  0
 16 17  1  0
 17 18  1  0
 18 19  2  0
 19 20  1  0
 20 21  1  0
 21 22  1  0
 21 23  1  0
 23 24  2  0
 23 25  1  0
 25 26  1  0
 26 27  1  0
 27 28  1  0
 28 29  1  0
 29 30  1  0
 29 31  1  0
 31 32  1  0
 20 33  2  0
 33 34  1  0
 15 35  1  0
 35 36  2  0
 36 37  1  0
 37 38  2  0
 38 39  1  0
 39 40  2  0
 10  5  2  0
 34 17  2  0
 40 35  1  0
 14  8  1  0
 32 26  1  0
  1 41  1  0
  1 42  1  0
  1 43  1  0
  6 44  1  0
  7 45  1  0
 10 46  1  0
 11 47  1  0
 16 48  1  0
 18 49  1  0
 19 50  1  0
 22 51  1  0
 22 52  1  0
 22 53  1  0
 25 54  1  0
 25 55  1  0
 27 56  1  0
 27 57  1  0
 28 58  1  0
 28 59  1  0
 30 60  1  0
 30 61  1  0
 30 62  1  0
 31 63  1  0
 31 64  1  0
 32 65  1  0
 32 66  1  0
 33 67  1  0
 34 68  1  0
 36 69  1  0
 37 70  1  0
 38 71  1  0
 39 72  1  0
 40 73  1  0
M  END
>  <meeko>  (3) 
{"is_sidechain": false}

>  <vina_affinity_kcal_mol>  (3) 
-5.413

>  <pose_rank>  (3) 
3

$$$$

     RDKit          3D

 73 77  0  0  0  0  0  0  0  0999 V2000
   25.9980    1.0030   10.5370 C   0  0  0  0  0  0  0  0  0  0  0  0
   27.0080    0.1850   11.1330 O   0  0  0  0  0  0  0  0  0  0  0  0
   26.8060   -1.1450   10.9690 C   0  0  0  0  0  0  0  0  0  0  0  0
   27.5780   -1.9270   10.4380 O   0  0  0  0  0  0  0  0  0  0  0  0
   25.4890   -1.5520   11.5310 C   0  0  0  0  0  0  0  0  0  0  0  0
   25.1900   -1.4420   12.9070 C   0  0  0  0  0  0  0  0  0  0  0  0
   23.9390   -1.8340   13.4100 C   0  0  0  0  0  0  0  0  0  0  0  0
   22.9930   -2.3350   12.5320 C   0  0  0  0  0  0  0  0  0  0  0  0
   23.3090   -2.4360   11.1700 C   0  0  0  0  0  0  0  0  0  0  0  0
   24.5300   -2.0590   10.6460 C   0  0  0  0  0  0  0  0  0  0  0  0
   22.2400   -2.9590   10.4530 N   0  0  0  0  0  0  0  0  0  0  0  0
   21.1700   -3.2390   11.2800 C   0  0  0  0  0  0  0  0  0  0  0  0
   20.1000   -3.7260   10.9590 O   0  0  0  0  0  0  0  0  0  0  0  0
   21.6100   -2.8330   12.6680 C   0  0  0  0  0  0  0  0  0  0  0  0
   20.7740   -2.9800   13.7220 C   0  0  0  0  0  0  0  0  0  0  0  0
   19.4570   -3.4500   13.6120 N   0  0  0  0  0  0  0  0  0  0  0  0
   18.9550   -4.6270   14.2110 C   0  0  0  0  0  0  0  0  0  0  0  0
   19.2890   -5.8970   13.7470 C   0  0  0  0  0  0  0  0  0  0  0  0
   18.7350   -7.0460   14.3300 C   0  0  0  0  0  0  0  0  0  0  0  0
   17.8260   -6.9660   15.3980 C   0  0  0  0  0  0  0  0  0  0  0  0
   17.2540   -8.1630   15.9740 N   0  0  0  0  0  0  0  0  0  0  0  0
   18.1940   -9.1920   16.4250 C   0  0  0  0  0  0  0  0  0  0  0  0
   15.8600   -8.2950   16.1910 C   0  0  0  0  0  0  0  0  0  0  0  0
   15.3160   -8.1350   17.2860 O   0  0  0  0  0  0  0  0  0  0  0  0
   15.0200   -8.6770   14.9450 C   0  0  0  0  0  0  0  0  0  0  0  0
   14.6010   -7.5600   14.0780 N   0  0  0  0  0  0  0  0  0  0  0  0
   15.2570   -7.5350   12.7590 C   0  0  0  0  0  0  0  0  0  0  0  0
   15.9100   -6.1820   12.3760 C   0  0  0  0  0  0  0  0  0  0  0  0
   15.0620   -4.9920   12.5780 N   0  0  0  0  0  0  0  0  0  0  0  0
   14.2670   -4.6850   11.3930 C   0  0  0  0  0  0  0  0  0  0  0  0
   14.1970   -5.1350   13.7680 C   0  0  0  0  0  0  0  0  0  0  0  0
   14.6330   -6.2520   14.7450 C   0  0  0  0  0  0  0  0  0  0  0  0
   17.4920   -5.6840   15.8490 C   0  0  0  0  0  0  0  0  0  0  0  0
   18.0450   -4.5330   15.2650 C   0  0  0  0  0  0  0  0  0  0  0  0
   21.2470   -2.5870   15.0670 C   0  0  0  0  0  0  0  0  0  0  0  0
   21.3290   -1.2340   15.4260 C   0  0  0  0  0  0  0  0  0  0  0  0
   21.7680   -0.8700   16.7000 C   0  0  0  0  0  0  0  0  0  0  0  0
   22.1250   -1.8530   17.6220 C   0  0  0  0  0  0  0  0  0  0  0  0
   22.0500   -3.2010   17.2720 C   0  0  0  0  0  0  0  0  0  0  0  0
   21.6140   -3.5690   15.9990 C   0  0  0  0  0  0  0  0  0  0  0  0
   25.4031    1.4848   11.3269 H   0  0  0  0  0  0  0  0  0  0  0  0
   26.4722    1.7747    9.9128 H   0  0  0  0  0  0  0  0  0  0  0  0
   25.3417    0.3788    9.9128 H   0  0  0  0  0  0  0  0  0  0  0  0
   25.9493   -1.0429   13.5956 H   0  0  0  0  0  0  0  0  0  0  0  0
   23.7145   -1.7446   14.4831 H   0  0  0  0  0  0  0  0  0  0  0  0
   24.7416   -2.1538    9.5707 H   0  0  0  0  0  0  0  0  0  0  0  0
   22.2230   -3.1380    9.4600 H   0  0  0  0  0  0  0  0  0  0  0  0
   19.1210   -3.3690   12.6440 H   0  0  0  0  0  0  0  0  0  0  0  0
   19.9972   -6.0003   12.9116 H   0  0  0  0  0  0  0  0  0  0  0  0
   19.0195   -8.0348   13.9411 H   0  0  0  0  0  0  0  0  0  0  0  0
   18.2139   -9.2138   17.5246 H   0  0  0  0  0  0  0  0  0  0  0  0
   17.8739  -10.1732   16.0445 H   0  0  0  0  0  0  0  0  0  0  0  0
   19.2001   -8.9617   16.0445 H   0  0  0  0  0  0  0  0  0  0  0  0
   15.6189   -9.3694   14.3352 H   0  0  0  0  0  0  0  0  0  0  0  0
   14.0890   -9.1114   15.3380 H   0  0  0  0  0  0  0  0  0  0  0  0
   16.0417   -8.3059   12.7538 H   0  0  0  0  0  0  0  0  0  0  0  0
   14.4636   -7.7133   12.0183 H   0  0  0  0  0  0  0  0  0  0  0  0
   16.8183   -6.0590   12.9842 H   0  0  0  0  0  0  0  0  0  0  0  0
   16.1066   -6.2349   11.2950 H   0  0  0  0  0  0  0  0  0  0  0  0
   13.2819   -4.3046   11.7008 H   0  0  0  0  0  0  0  0  0  0  0  0
   14.7836   -3.9217   10.7926 H   0  0  0  0  0  0  0  0  0  0  0  0
   14.1365   -5.5974   10.7926 H   0  0  0  0  0  0  0  0  0  0  0  0
   14.2018   -4.1798   14.3135 H   0  0  0  0  0  0  0  0  0  0  0  0
   13.1989   -5.4133   13.3987 H   0  0  0  0  0  0  0  0  0  0  0  0
   15.6561   -6.0486   15.0941 H   0  0  0  0  0  0  0  0  0  0  0  0
   13.9381   -6.2703   15.5975 H   0  0  0  0  0  0  0  0  0  0  0  0
   16.7798   -5.5755   16.6802 H   0  0  0  0  0  0  0  0  0  0  0  0
   17.7564   -3.5416   15.6442 H   0  0  0  0  0  0  0  0  0  0  0  0
   21.0463   -0.4566   14.7009 H   0  0  0  0  0  0  0  0  0  0  0  0
   21.8323    0.1927   16.9766 H   0  0  0  0  0  0  0  0  0  0  0  0
   22.4664   -1.5649   18.6272 H   0  0  0  0  0  0  0  0  0  0  0  0
   22.3349   -3.9746   18.0003 H   0  0  0  0  0  0  0  0  0  0  0  0
   21.5578   -4.6329   15.7251 H   0  0  0  0  0  0  0  0  0  0  0  0
  1  2  1  0
  2  3  1  0
  3  4  2  0
  3  5  1  0
  5  6  1  0
  6  7  2  0
  7  8  1  0
  8  9  2  0
  9 10  1  0
  9 11  1  0
 11 12  1  0
 12 13  2  0
 12 14  1  0
 14 15  2  0
 15 16  1  0
 16 17  1  0
 17 18  1  0
 18 19  2  0
 19 20  1  0
 20 21  1  0
 21 22  1  0
 21 23  1  0
 23 24  2  0
 23 25  1  0
 25 26  1  0
 26 27  1  0
 27 28  1  0
 28 29  1  0
 29 30  1  0
 29 31  1  0
 31 32  1  0
 20 33  2  0
 33 34  1  0
 15 35  1  0
 35 36  2  0
 36 37  1  0
 37 38  2  0
 38 39  1  0
 39 40  2  0
 10  5  2  0
 34 17  2  0
 40 35  1  0
 14  8  1  0
 32 26  1  0
  1 41  1  0
  1 42  1  0
  1 43  1  0
  6 44  1  0
  7 45  1  0
 10 46  1  0
 11 47  1  0
 16 48  1  0
 18 49  1  0
 19 50  1  0
 22 51  1  0
 22 52  1  0
 22 53  1  0
 25 54  1  0
 25 55  1  0
 27 56  1  0
 27 57  1  0
 28 58  1  0
 28 59  1  0
 30 60  1  0
 30 61  1  0
 30 62  1  0
 31 63  1  0
 31 64  1  0
 32 65  1  0
 32 66  1  0
 33 67  1  0
 34 68  1  0
 36 69  1  0
 37 70  1  0
 38 71  1  0
 39 72  1  0
 40 73  1  0
M  END
>  <meeko>  (4) 
{"is_sidechain": false}

>  <vina_affinity_kcal_mol>  (4) 
-4.134

>  <pose_rank>  (4) 
4

$$$$

     RDKit          3D

 73 77  0  0  0  0  0  0  0  0999 V2000
   24.4550   -0.5850   22.0500 C   0  0  0  0  0  0  0  0  0  0  0  0
   23.6860   -1.7840   21.9370 O   0  0  0  0  0  0  0  0  0  0  0  0
   22.3580   -1.5730   21.7690 C   0  0  0  0  0  0  0  0  0  0  0  0
   21.5890   -1.1370   22.6120 O   0  0  0  0  0  0  0  0  0  0  0  0
   21.9340   -1.9470   20.3930 C   0  0  0  0  0  0  0  0  0  0  0  0
   22.4900   -1.3460   19.2420 C   0  0  0  0  0  0  0  0  0  0  0  0
   22.0710   -1.7190   17.9550 C   0  0  0  0  0  0  0  0  0  0  0  0
   21.0960   -2.6910   17.8260 C   0  0  0  0  0  0  0  0  0  0  0  0
   20.5550   -3.2770   18.9790 C   0  0  0  0  0  0  0  0  0  0  0  0
   20.9470   -2.9310   20.2590 C   0  0  0  0  0  0  0  0  0  0  0  0
   19.5950   -4.2250   18.6490 N   0  0  0  0  0  0  0  0  0  0  0  0
   19.4360   -4.3220   17.2800 C   0  0  0  0  0  0  0  0  0  0  0  0
   18.6570   -5.0410   16.6800 O   0  0  0  0  0  0  0  0  0  0  0  0
   20.4150   -3.3360   16.6860 C   0  0  0  0  0  0  0  0  0  0  0  0
   20.5090   -3.1890   15.3430 C   0  0  0  0  0  0  0  0  0  0  0  0
   19.7750   -3.9520   14.4230 N   0  0  0  0  0  0  0  0  0  0  0  0
   20.2470   -5.1050   13.7540 C   0  0  0  0  0  0  0  0  0  0  0  0
   20.5330   -6.2890   14.4280 C   0  0  0  0  0  0  0  0  0  0  0  0
   21.0470   -7.4010   13.7450 C   0  0  0  0  0  0  0  0  0  0  0  0
   21.2960   -7.3660   12.3620 C   0  0  0  0  0  0  0  0  0  0  0  0
   21.8430   -8.5180   11.6800 N   0  0  0  0  0  0  0  0  0  0  0  0
   20.9670   -9.1920   10.7180 C   0  0  0  0  0  0  0  0  0  0  0  0
   23.1920   -8.9170   11.8510 C   0  0  0  0  0  0  0  0  0  0  0  0
   23.6950   -9.1900   12.9440 O   0  0  0  0  0  0  0  0  0  0  0  0
   24.0420   -8.9820   10.5560 C   0  0  0  0  0  0  0  0  0  0  0  0
   25.1220   -7.9850   10.4400 N   0  0  0  0  0  0  0  0  0  0  0  0
   26.4810   -8.5520   10.5020 C   0  0  0  0  0  0  0  0  0  0  0  0
   27.4260   -7.8810   11.5320 C   0  0  0  0  0  0  0  0  0  0  0  0
   27.4590   -6.4070   11.4930 N   0  0  0  0  0  0  0  0  0  0  0  0
   28.4800   -5.9120   10.5740 C   0  0  0  0  0  0  0  0  0  0  0  0
   26.1350   -5.8410   11.1610 C   0  0  0  0  0  0  0  0  0  0  0  0
   24.9570   -6.8280   11.3310 C   0  0  0  0  0  0  0  0  0  0  0  0
   21.0130   -6.1660   11.6990 C   0  0  0  0  0  0  0  0  0  0  0  0
   20.4990   -5.0540   12.3820 C   0  0  0  0  0  0  0  0  0  0  0  0
   21.4670   -2.2030   14.7990 C   0  0  0  0  0  0  0  0  0  0  0  0
   21.6240   -0.9500   15.4090 C   0  0  0  0  0  0  0  0  0  0  0  0
   22.5360   -0.0270   14.8950 C   0  0  0  0  0  0  0  0  0  0  0  0
   23.2960   -0.3490   13.7710 C   0  0  0  0  0  0  0  0  0  0  0  0
   23.1430   -1.5910   13.1550 C   0  0  0  0  0  0  0  0  0  0  0  0
   22.2310   -2.5160   13.6650 C   0  0  0  0  0  0  0  0  0  0  0  0
   24.6081   -0.3464   23.1128 H   0  0  0  0  0  0  0  0  0  0  0  0
   25.4305   -0.7277   21.5621 H   0  0  0  0  0  0  0  0  0  0  0  0
   23.9185    0.2421   21.5621 H   0  0  0  0  0  0  0  0  0  0  0  0
   23.2641   -0.5729   19.3559 H   0  0  0  0  0  0  0  0  0  0  0  0
   22.5108   -1.2461   17.0645 H   0  0  0  0  0  0  0  0  0  0  0  0
   20.4991   -3.4119   21.1411 H   0  0  0  0  0  0  0  0  0  0  0  0
   19.0560   -4.7760   19.3000 H   0  0  0  0  0  0  0  0  0  0  0  0
   19.2630   -3.3450   13.7720 H   0  0  0  0  0  0  0  0  0  0  0  0
   20.3534   -6.3534   15.5113 H   0  0  0  0  0  0  0  0  0  0  0  0
   21.2605   -8.3232   14.3054 H   0  0  0  0  0  0  0  0  0  0  0  0
   20.2082   -9.7759   11.2596 H   0  0  0  0  0  0  0  0  0  0  0  0
   20.4699   -8.4412   10.0861 H   0  0  0  0  0  0  0  0  0  0  0  0
   21.5653   -9.8649   10.0861 H   0  0  0  0  0  0  0  0  0  0  0  0
   24.4994   -9.9810   10.5037 H   0  0  0  0  0  0  0  0  0  0  0  0
   23.3458   -8.7615    9.7334 H   0  0  0  0  0  0  0  0  0  0  0  0
   26.3945   -9.6173   10.7621 H   0  0  0  0  0  0  0  0  0  0  0  0
   26.9314   -8.3782    9.5136 H   0  0  0  0  0  0  0  0  0  0  0  0
   27.1035   -8.1868   12.5382 H   0  0  0  0  0  0  0  0  0  0  0  0
   28.4420   -8.2141   11.2735 H   0  0  0  0  0  0  0  0  0  0  0  0
   29.3237   -5.5029   11.1491 H   0  0  0  0  0  0  0  0  0  0  0  0
   28.8345   -6.7382    9.9403 H   0  0  0  0  0  0  0  0  0  0  0  0
   28.0509   -5.1219    9.9403 H   0  0  0  0  0  0  0  0  0  0  0  0
   25.9564   -4.9761   11.8168 H   0  0  0  0  0  0  0  0  0  0  0  0
   26.1673   -5.5717   10.0950 H   0  0  0  0  0  0  0  0  0  0  0  0
   24.9241   -7.1761   12.3739 H   0  0  0  0  0  0  0  0  0  0  0  0
   24.0204   -6.3117   11.0737 H   0  0  0  0  0  0  0  0  0  0  0  0
   21.1981   -6.0935   10.6171 H   0  0  0  0  0  0  0  0  0  0  0  0
   20.2912   -4.1269   11.8276 H   0  0  0  0  0  0  0  0  0  0  0  0
   21.0260   -0.6937   16.2960 H   0  0  0  0  0  0  0  0  0  0  0  0
   22.6553    0.9547   15.3766 H   0  0  0  0  0  0  0  0  0  0  0  0
   24.0175    0.3778   13.3695 H   0  0  0  0  0  0  0  0  0  0  0  0
   23.7415   -1.8415   12.2667 H   0  0  0  0  0  0  0  0  0  0  0  0
   22.1108   -3.4940   13.1760 H   0  0  0  0  0  0  0  0  0  0  0  0
  1  2  1  0
  2  3  1  0
  3  4  2  0
  3  5  1  0
  5  6  1  0
  6  7  2  0
  7  8  1  0
  8  9  2  0
  9 10  1  0
  9 11  1  0
 11 12  1  0
 12 13  2  0
 12 14  1  0
 14 15  2  0
 15 16  1  0
 16 17  1  0
 17 18  1  0
 18 19  2  0
 19 20  1  0
 20 21  1  0
 21 22  1  0
 21 23  1  0
 23 24  2  0
 23 25  1  0
 25 26  1  0
 26 27  1  0
 27 28  1  0
 28 29  1  0
 29 30  1  0
 29 31  1  0
 31 32  1  0
 20 33  2  0
 33 34  1  0
 15 35  1  0
 35 36  2  0
 36 37  1  0
 37 38  2  0
 38 39  1  0
 39 40  2  0
 10  5  2  0
 34 17  2  0
 40 35  1  0
 14  8  1  0
 32 26  1  0
  1 41  1  0
  1 42  1  0
  1 43  1  0
  6 44  1  0
  7 45  1  0
 10 46  1  0
 11 47  1  0
 16 48  1  0
 18 49  1  0
 19 50  1  0
 22 51  1  0
 22 52  1  0
 22 53  1  0
 25 54  1  0
 25 55  1  0
 27 56  1  0
 27 57  1  0
 28 58  1  0
 28 59  1  0
 30 60  1  0
 30 61  1  0
 30 62  1  0
 31 63  1  0
 31 64  1  0
 32 65  1  0
 32 66  1  0
 33 67  1  0
 34 68  1  0
 36 69  1  0
 37 70  1  0
 38 71  1  0
 39 72  1  0
 40 73  1  0
M  END
>  <meeko>  (5) 
{"is_sidechain": false}

>  <vina_affinity_kcal_mol>  (5) 
-4.078

>  <pose_rank>  (5) 
5

$$$$

     RDKit          3D

 73 77  0  0  0  0  0  0  0  0999 V2000
   14.8800   -5.0600   11.0600 C   0  0  0  0  0  0  0  0  0  0  0  0
   15.8400   -5.7890   11.8270 O   0  0  0  0  0  0  0  0  0  0  0  0
   17.1230   -5.4110   11.6050 C   0  0  0  0  0  0  0  0  0  0  0  0
   17.6870   -5.3900   10.5220 O   0  0  0  0  0  0  0  0  0  0  0  0
   17.7830   -5.0120   12.8780 C   0  0  0  0  0  0  0  0  0  0  0  0
   18.8270   -4.0610   12.9200 C   0  0  0  0  0  0  0  0  0  0  0  0
   19.4320   -3.7020   14.1350 C   0  0  0  0  0  0  0  0  0  0  0  0
   18.9900   -4.2990   15.3030 C   0  0  0  0  0  0  0  0  0  0  0  0
   17.9540   -5.2410   15.2410 C   0  0  0  0  0  0  0  0  0  0  0  0
   17.3380   -5.6140   14.0610 C   0  0  0  0  0  0  0  0  0  0  0  0
   17.6520   -5.7270   16.5070 N   0  0  0  0  0  0  0  0  0  0  0  0
   18.4580   -5.1540   17.4700 C   0  0  0  0  0  0  0  0  0  0  0  0
   18.4560   -5.3890   18.6650 O   0  0  0  0  0  0  0  0  0  0  0  0
   19.3570   -4.1910   16.7280 C   0  0  0  0  0  0  0  0  0  0  0  0
   20.2760   -3.4580   17.3990 C   0  0  0  0  0  0  0  0  0  0  0  0
   20.4280   -3.4860   18.7930 N   0  0  0  0  0  0  0  0  0  0  0  0
   21.4690   -2.8600   19.5160 C   0  0  0  0  0  0  0  0  0  0  0  0
   22.8080   -3.0010   19.1610 C   0  0  0  0  0  0  0  0  0  0  0  0
   23.8230   -2.4090   19.9270 C   0  0  0  0  0  0  0  0  0  0  0  0
   23.5340   -1.6550   21.0780 C   0  0  0  0  0  0  0  0  0  0  0  0
   24.5960   -1.0670   21.8630 N   0  0  0  0  0  0  0  0  0  0  0  0
   25.5770   -1.9900   22.4420 C   0  0  0  0  0  0  0  0  0  0  0  0
   24.7480    0.3370   21.9820 C   0  0  0  0  0  0  0  0  0  0  0  0
   23.8570    1.1490   21.7200 O   0  0  0  0  0  0  0  0  0  0  0  0
   26.1400    0.8230   22.4610 C   0  0  0  0  0  0  0  0  0  0  0  0
   26.1640    2.1140   23.1740 N   0  0  0  0  0  0  0  0  0  0  0  0
   26.5190    3.2680   22.3290 C   0  0  0  0  0  0  0  0  0  0  0  0
   27.6630    4.1570   22.8810 C   0  0  0  0  0  0  0  0  0  0  0  0
   27.5340    4.5470   24.2980 N   0  0  0  0  0  0  0  0  0  0  0  0
   26.7940    5.7960   24.4510 C   0  0  0  0  0  0  0  0  0  0  0  0
   26.9200    3.4710   25.1050 C   0  0  0  0  0  0  0  0  0  0  0  0
   26.9290    2.0810   24.4280 C   0  0  0  0  0  0  0  0  0  0  0  0
   22.1850   -1.5290   21.4280 C   0  0  0  0  0  0  0  0  0  0  0  0
   21.1690   -2.1220   20.6620 C   0  0  0  0  0  0  0  0  0  0  0  0
   21.1480   -2.5380   16.6370 C   0  0  0  0  0  0  0  0  0  0  0  0
   22.0490   -3.0350   15.6850 C   0  0  0  0  0  0  0  0  0  0  0  0
   22.8630   -2.1600   14.9640 C   0  0  0  0  0  0  0  0  0  0  0  0
   22.7820   -0.7860   15.1880 C   0  0  0  0  0  0  0  0  0  0  0  0
   21.8920   -0.2830   16.1360 C   0  0  0  0  0  0  0  0  0  0  0  0
   21.0770   -1.1550   16.8600 C   0  0  0  0  0  0  0  0  0  0  0  0
   14.1902   -4.5362   11.7381 H   0  0  0  0  0  0  0  0  0  0  0  0
   15.3985   -4.3260   10.4257 H   0  0  0  0  0  0  0  0  0  0  0  0
   14.3122   -5.7565   10.4257 H   0  0  0  0  0  0  0  0  0  0  0  0
   19.1715   -3.5942   11.9854 H   0  0  0  0  0  0  0  0  0  0  0  0
   20.2431   -2.9593   14.1583 H   0  0  0  0  0  0  0  0  0  0  0  0
   16.5271   -6.3573   14.0519 H   0  0  0  0  0  0  0  0  0  0  0  0
   16.9510   -6.4200   16.7240 H   0  0  0  0  0  0  0  0  0  0  0  0
   20.2550   -4.4300   19.1600 H   0  0  0  0  0  0  0  0  0  0  0  0
   23.0735   -3.5848   18.2673 H   0  0  0  0  0  0  0  0  0  0  0  0
   24.8713   -2.5379   19.6195 H   0  0  0  0  0  0  0  0  0  0  0  0
   25.5240   -1.9402   23.5396 H   0  0  0  0  0  0  0  0  0  0  0  0
   25.3560   -3.0153   22.1104 H   0  0  0  0  0  0  0  0  0  0  0  0
   26.5869   -1.7070   22.1104 H   0  0  0  0  0  0  0  0  0  0  0  0
   26.5495    0.0577   23.1367 H   0  0  0  0  0  0  0  0  0  0  0  0
   26.7308    0.9784   21.5462 H   0  0  0  0  0  0  0  0  0  0  0  0
   26.8274    2.8876   21.3440 H   0  0  0  0  0  0  0  0  0  0  0  0
   25.6246    3.9071   22.2899 H   0  0  0  0  0  0  0  0  0  0  0  0
   28.6075    3.6051   22.7656 H   0  0  0  0  0  0  0  0  0  0  0  0
   27.6245    5.0930   22.3044 H   0  0  0  0  0  0  0  0  0  0  0  0
   26.6635    6.0162   25.5208 H   0  0  0  0  0  0  0  0  0  0  0  0
   27.3531    6.6143   23.9737 H   0  0  0  0  0  0  0  0  0  0  0  0
   25.8077    5.6987   23.9737 H   0  0  0  0  0  0  0  0  0  0  0  0
   27.4713    3.3952   26.0538 H   0  0  0  0  0  0  0  0  0  0  0  0
   25.8640    3.7460   25.2437 H   0  0  0  0  0  0  0  0  0  0  0  0
   27.9676    1.7909   24.2108 H   0  0  0  0  0  0  0  0  0  0  0  0
   26.4656    1.3512   25.1082 H   0  0  0  0  0  0  0  0  0  0  0  0
   21.9143   -0.9517   22.3244 H   0  0  0  0  0  0  0  0  0  0  0  0
   20.1197   -2.0031   20.9699 H   0  0  0  0  0  0  0  0  0  0  0  0
   22.1147   -4.1183   15.5056 H   0  0  0  0  0  0  0  0  0  0  0  0
   23.5690   -2.5546   14.2184 H   0  0  0  0  0  0  0  0  0  0  0  0
   23.4214   -0.0978   14.6157 H   0  0  0  0  0  0  0  0  0  0  0  0
   21.8320    0.8009   16.3135 H   0  0  0  0  0  0  0  0  0  0  0  0
   20.3764   -0.7560   17.6083 H   0  0  0  0  0  0  0  0  0  0  0  0
  1  2  1  0
  2  3  1  0
  3  4  2  0
  3  5  1  0
  5  6  1  0
  6  7  2  0
  7  8  1  0
  8  9  2  0
  9 10  1  0
  9 11  1  0
 11 12  1  0
 12 13  2  0
 12 14  1  0
 14 15  2  0
 15 16  1  0
 16 17  1  0
 17 18  1  0
 18 19  2  0
 19 20  1  0
 20 21  1  0
 21 22  1  0
 21 23  1  0
 23 24  2  0
 23 25  1  0
 25 26  1  0
 26 27  1  0
 27 28  1  0
 28 29  1  0
 29 30  1  0
 29 31  1  0
 31 32  1  0
 20 33  2  0
 33 34  1  0
 15 35  1  0
 35 36  2  0
 36 37  1  0
 37 38  2  0
 38 39  1  0
 39 40  2  0
 10  5  2  0
 34 17  2  0
 40 35  1  0
 14  8  1  0
 32 26  1  0
  1 41  1  0
  1 42  1  0
  1 43  1  0
  6 44  1  0
  7 45  1  0
 10 46  1  0
 11 47  1  0
 16 48  1  0
 18 49  1  0
 19 50  1  0
 22 51  1  0
 22 52  1  0
 22 53  1  0
 25 54  1  0
 25 55  1  0
 27 56  1  0
 27 57  1  0
 28 58  1  0
 28 59  1  0
 30 60  1  0
 30 61  1  0
 30 62  1  0
 31 63  1  0
 31 64  1  0
 32 65  1  0
 32 66  1  0
 33 67  1  0
 34 68  1  0
 36 69  1  0
 37 70  1  0
 38 71  1  0
 39 72  1  0
 40 73  1  0
M  END
>  <meeko>  (6) 
{"is_sidechain": false}

>  <vina_affinity_kcal_mol>  (6) 
-3.777

>  <pose_rank>  (6) 
6

$$$$

     RDKit          3D

 73 77  0  0  0  0  0  0  0  0999 V2000
   25.7720    0.0330   22.2350 C   0  0  0  0  0  0  0  0  0  0  0  0
   25.0220   -1.1730   22.0760 O   0  0  0  0  0  0  0  0  0  0  0  0
   23.6820   -1.0080   22.2020 C   0  0  0  0  0  0  0  0  0  0  0  0
   23.1060   -0.5250   23.1640 O   0  0  0  0  0  0  0  0  0  0  0  0
   22.9730   -1.5000   20.9890 C   0  0  0  0  0  0  0  0  0  0  0  0
   23.3560   -1.1180   19.6850 C   0  0  0  0  0  0  0  0  0  0  0  0
   22.6690   -1.5980   18.5580 C   0  0  0  0  0  0  0  0  0  0  0  0
   21.6010   -2.4580   18.7440 C   0  0  0  0  0  0  0  0  0  0  0  0
   21.2360   -2.8260   20.0450 C   0  0  0  0  0  0  0  0  0  0  0  0
   21.8920   -2.3710   21.1740 C   0  0  0  0  0  0  0  0  0  0  0  0
   20.1480   -3.6890   20.0280 N   0  0  0  0  0  0  0  0  0  0  0  0
   19.7250   -3.9380   18.7370 C   0  0  0  0  0  0  0  0  0  0  0  0
   18.7840   -4.6310   18.3930 O   0  0  0  0  0  0  0  0  0  0  0  0
   20.6610   -3.1570   17.8450 C   0  0  0  0  0  0  0  0  0  0  0  0
   20.5140   -3.1920   16.5000 C   0  0  0  0  0  0  0  0  0  0  0  0
   19.5520   -3.9740   15.8420 N   0  0  0  0  0  0  0  0  0  0  0  0
   19.7690   -4.7140   14.6580 C   0  0  0  0  0  0  0  0  0  0  0  0
   19.4170   -4.2260   13.4020 C   0  0  0  0  0  0  0  0  0  0  0  0
   19.5980   -5.0040   12.2500 C   0  0  0  0  0  0  0  0  0  0  0  0
   20.1380   -6.3000   12.3120 C   0  0  0  0  0  0  0  0  0  0  0  0
   20.3010   -7.0910   11.1130 N   0  0  0  0  0  0  0  0  0  0  0  0
   21.5970   -7.0040   10.4360 C   0  0  0  0  0  0  0  0  0  0  0  0
   19.2990   -7.9900   10.6690 C   0  0  0  0  0  0  0  0  0  0  0  0
   19.4940   -9.1890   10.4600 O   0  0  0  0  0  0  0  0  0  0  0  0
   17.8970   -7.3690   10.4360 C   0  0  0  0  0  0  0  0  0  0  0  0
   16.8850   -7.6490   11.4710 N   0  0  0  0  0  0  0  0  0  0  0  0
   16.2660   -6.4470   12.0560 C   0  0  0  0  0  0  0  0  0  0  0  0
   16.2830   -6.3880   13.6050 C   0  0  0  0  0  0  0  0  0  0  0  0
   15.8290   -7.6140   14.2890 N   0  0  0  0  0  0  0  0  0  0  0  0
   14.3890   -7.5990   14.5300 C   0  0  0  0  0  0  0  0  0  0  0  0
   16.2250   -8.8300   13.5480 C   0  0  0  0  0  0  0  0  0  0  0  0
   17.3340   -8.6030   12.4940 C   0  0  0  0  0  0  0  0  0  0  0  0
   20.4790   -6.7810   13.5810 C   0  0  0  0  0  0  0  0  0  0  0  0
   20.2970   -6.0040   14.7350 C   0  0  0  0  0  0  0  0  0  0  0  0
   21.4390   -2.4010   15.6590 C   0  0  0  0  0  0  0  0  0  0  0  0
   22.2660   -3.0340   14.7210 C   0  0  0  0  0  0  0  0  0  0  0  0
   23.1310   -2.2810   13.9250 C   0  0  0  0  0  0  0  0  0  0  0  0
   23.1740   -0.8940   14.0610 C   0  0  0  0  0  0  0  0  0  0  0  0
   22.3580   -0.2560   14.9950 C   0  0  0  0  0  0  0  0  0  0  0  0
   21.4930   -1.0060   15.7930 C   0  0  0  0  0  0  0  0  0  0  0  0
   25.9035    0.2444   23.3064 H   0  0  0  0  0  0  0  0  0  0  0  0
   26.7576   -0.0829   21.7605 H   0  0  0  0  0  0  0  0  0  0  0  0
   25.2322    0.8657   21.7605 H   0  0  0  0  0  0  0  0  0  0  0  0
   24.2062   -0.4334   19.5495 H   0  0  0  0  0  0  0  0  0  0  0  0
   22.9745   -1.2957   17.5454 H   0  0  0  0  0  0  0  0  0  0  0  0
   21.5763   -2.6818   22.1808 H   0  0  0  0  0  0  0  0  0  0  0  0
   19.6930   -4.0870   20.8370 H   0  0  0  0  0  0  0  0  0  0  0  0
   18.6510   -3.4820   15.7970 H   0  0  0  0  0  0  0  0  0  0  0  0
   18.9909   -3.2158   13.3127 H   0  0  0  0  0  0  0  0  0  0  0  0
   19.3100   -4.5895   11.2726 H   0  0  0  0  0  0  0  0  0  0  0  0
   22.3997   -6.9501   11.1862 H   0  0  0  0  0  0  0  0  0  0  0  0
   21.7425   -7.8944    9.8067 H   0  0  0  0  0  0  0  0  0  0  0  0
   21.6221   -6.1021    9.8067 H   0  0  0  0  0  0  0  0  0  0  0  0
   18.0190   -6.2777   10.3714 H   0  0  0  0  0  0  0  0  0  0  0  0
   17.5159   -7.8352    9.5154 H   0  0  0  0  0  0  0  0  0  0  0  0
   16.8043   -5.5665   11.6752 H   0  0  0  0  0  0  0  0  0  0  0  0
   15.2065   -6.4730   11.7614 H   0  0  0  0  0  0  0  0  0  0  0  0
   17.3150   -6.1826   13.9257 H   0  0  0  0  0  0  0  0  0  0  0  0
   15.5682   -5.6008   13.8867 H   0  0  0  0  0  0  0  0  0  0  0  0
   14.1986   -7.5970   15.6134 H   0  0  0  0  0  0  0  0  0  0  0  0
   13.9512   -6.6962   14.0791 H   0  0  0  0  0  0  0  0  0  0  0  0
   13.9324   -8.4924   14.0791 H   0  0  0  0  0  0  0  0  0  0  0  0
   16.5872   -9.5727   14.2741 H   0  0  0  0  0  0  0  0  0  0  0  0
   15.3337   -9.1670   12.9984 H   0  0  0  0  0  0  0  0  0  0  0  0
   18.2303   -8.2045   12.9919 H   0  0  0  0  0  0  0  0  0  0  0  0
   17.5646   -9.5627   12.0083 H   0  0  0  0  0  0  0  0  0  0  0  0
   20.9000   -7.7928   13.6761 H   0  0  0  0  0  0  0  0  0  0  0  0
   20.5747   -6.4177   15.7157 H   0  0  0  0  0  0  0  0  0  0  0  0
   22.2333   -4.1281   14.6117 H   0  0  0  0  0  0  0  0  0  0  0  0
   23.7787   -2.7819   13.1905 H   0  0  0  0  0  0  0  0  0  0  0  0
   23.8531   -0.3016   13.4302 H   0  0  0  0  0  0  0  0  0  0  0  0
   22.3962    0.8381   15.1026 H   0  0  0  0  0  0  0  0  0  0  0  0
   20.8511   -0.5011   16.5299 H   0  0  0  0  0  0  0  0  0  0  0  0
  1  2  1  0
  2  3  1  0
  3  4  2  0
  3  5  1  0
  5  6  1  0
  6  7  2  0
  7  8  1  0
  8  9  2  0
  9 10  1  0
  9 11  1  0
 11 12  1  0
 12 13  2  0
 12 14  1  0
 14 15  2  0
 15 16  1  0
 16 17  1  0
 17 18  1  0
 18 19  2  0
 19 20  1  0
 20 21  1  0
 21 22  1  0
 21 23  1  0
 23 24  2  0
 23 25  1  0
 25 26  1  0
 26 27  1  0
 27 28  1  0
 28 29  1  0
 29 30  1  0
 29 31  1  0
 31 32  1  0
 20 33  2  0
 33 34  1  0
 15 35  1  0
 35 36  2  0
 36 37  1  0
 37 38  2  0
 38 39  1  0
 39 40  2  0
 10  5  2  0
 34 17  2  0
 40 35  1  0
 14  8  1  0
 32 26  1  0
  1 41  1  0
  1 42  1  0
  1 43  1  0
  6 44  1  0
  7 45  1  0
 10 46  1  0
 11 47  1  0
 16 48  1  0
 18 49  1  0
 19 50  1  0
 22 51  1  0
 22 52  1  0
 22 53  1  0
 25 54  1  0
 25 55  1  0
 27 56  1  0
 27 57  1  0
 28 58  1  0
 28 59  1  0
 30 60  1  0
 30 61  1  0
 30 62  1  0
 31 63  1  0
 31 64  1  0
 32 65  1  0
 32 66  1  0
 33 67  1  0
 34 68  1  0
 36 69  1  0
 37 70  1  0
 38 71  1  0
 39 72  1  0
 40 73  1  0
M  END
>  <meeko>  (7) 
{"is_sidechain": false}

>  <vina_affinity_kcal_mol>  (7) 
-2.338

>  <pose_rank>  (7) 
7

$$$$

     RDKit          3D

 73 77  0  0  0  0  0  0  0  0999 V2000
   18.1570   -7.2020   10.9300 C   0  0  0  0  0  0  0  0  0  0  0  0
   17.8450   -5.8500   10.5880 O   0  0  0  0  0  0  0  0  0  0  0  0
   16.9830   -5.2510   11.4460 C   0  0  0  0  0  0  0  0  0  0  0  0
   15.8040   -5.0180   11.2310 O   0  0  0  0  0  0  0  0  0  0  0  0
   17.6650   -4.8990   12.7220 C   0  0  0  0  0  0  0  0  0  0  0  0
   18.7370   -3.9820   12.7760 C   0  0  0  0  0  0  0  0  0  0  0  0
   19.3620   -3.6690   13.9930 C   0  0  0  0  0  0  0  0  0  0  0  0
   18.9100   -4.2770   15.1510 C   0  0  0  0  0  0  0  0  0  0  0  0
   17.8450   -5.1850   15.0780 C   0  0  0  0  0  0  0  0  0  0  0  0
   17.2100   -5.5130   13.8950 C   0  0  0  0  0  0  0  0  0  0  0  0
   17.5370   -5.6890   16.3350 N   0  0  0  0  0  0  0  0  0  0  0  0
   18.3690   -5.1620   17.3040 C   0  0  0  0  0  0  0  0  0  0  0  0
   18.3680   -5.4230   18.4940 O   0  0  0  0  0  0  0  0  0  0  0  0
   19.2910   -4.2110   16.5760 C   0  0  0  0  0  0  0  0  0  0  0  0
   20.2370   -3.5210   17.2550 C   0  0  0  0  0  0  0  0  0  0  0  0
   20.3990   -3.5840   18.6470 N   0  0  0  0  0  0  0  0  0  0  0  0
   21.4070   -2.9240   19.3850 C   0  0  0  0  0  0  0  0  0  0  0  0
   22.7440   -2.9400   18.9960 C   0  0  0  0  0  0  0  0  0  0  0  0
   23.7290   -2.3180   19.7750 C   0  0  0  0  0  0  0  0  0  0  0  0
   23.4120   -1.6570   20.9750 C   0  0  0  0  0  0  0  0  0  0  0  0
   24.4460   -1.0360   21.7720 N   0  0  0  0  0  0  0  0  0  0  0  0
   25.6910   -1.7910   21.9440 C   0  0  0  0  0  0  0  0  0  0  0  0
   24.3100    0.2810   22.2770 C   0  0  0  0  0  0  0  0  0  0  0  0
   23.5620    0.5860   23.2090 O   0  0  0  0  0  0  0  0  0  0  0  0
   25.1650    1.3630   21.5690 C   0  0  0  0  0  0  0  0  0  0  0  0
   26.2610    1.9460   22.3660 N   0  0  0  0  0  0  0  0  0  0  0  0
   26.3380    1.4480   23.7500 C   0  0  0  0  0  0  0  0  0  0  0  0
   26.3920    2.5480   24.8410 C   0  0  0  0  0  0  0  0  0  0  0  0
   27.3690    3.6270   24.6030 N   0  0  0  0  0  0  0  0  0  0  0  0
   28.6740    3.3120   25.1760 C   0  0  0  0  0  0  0  0  0  0  0  0
   27.4890    3.9450   23.1650 C   0  0  0  0  0  0  0  0  0  0  0  0
   26.3290    3.4120   22.2930 C   0  0  0  0  0  0  0  0  0  0  0  0
   22.0670   -1.6560   21.3590 C   0  0  0  0  0  0  0  0  0  0  0  0
   21.0800   -2.2790   20.5790 C   0  0  0  0  0  0  0  0  0  0  0  0
   21.1320   -2.6120   16.5060 C   0  0  0  0  0  0  0  0  0  0  0  0
   22.0530   -3.1220   15.5800 C   0  0  0  0  0  0  0  0  0  0  0  0
   22.8880   -2.2580   14.8700 C   0  0  0  0  0  0  0  0  0  0  0  0
   22.8090   -0.8820   15.0810 C   0  0  0  0  0  0  0  0  0  0  0  0
   21.8990   -0.3660   16.0030 C   0  0  0  0  0  0  0  0  0  0  0  0
   21.0630   -1.2270   16.7160 C   0  0  0  0  0  0  0  0  0  0  0  0
   18.1812   -7.3071   12.0247 H   0  0  0  0  0  0  0  0  0  0  0  0
   17.3898   -7.8718   10.5143 H   0  0  0  0  0  0  0  0  0  0  0  0
   19.1401   -7.4679   10.5143 H   0  0  0  0  0  0  0  0  0  0  0  0
   19.0882   -3.5050   11.8491 H   0  0  0  0  0  0  0  0  0  0  0  0
   20.1964   -2.9530   14.0258 H   0  0  0  0  0  0  0  0  0  0  0  0
   16.3768   -6.2309   13.8758 H   0  0  0  0  0  0  0  0  0  0  0  0
   16.8170   -6.3640   16.5430 H   0  0  0  0  0  0  0  0  0  0  0  0
   20.2810   -4.5470   18.9850 H   0  0  0  0  0  0  0  0  0  0  0  0
   23.0312   -3.4483   18.0637 H   0  0  0  0  0  0  0  0  0  0  0  0
   24.7761   -2.3476   19.4394 H   0  0  0  0  0  0  0  0  0  0  0  0
   25.8983   -1.9167   23.0169 H   0  0  0  0  0  0  0  0  0  0  0  0
   25.5887   -2.7793   21.4721 H   0  0  0  0  0  0  0  0  0  0  0  0
   26.5201   -1.2434   21.4721 H   0  0  0  0  0  0  0  0  0  0  0  0
   25.6076    0.9075   20.6709 H   0  0  0  0  0  0  0  0  0  0  0  0
   24.4762    2.1947   21.3596 H   0  0  0  0  0  0  0  0  0  0  0  0
   25.4515    0.8245   23.9379 H   0  0  0  0  0  0  0  0  0  0  0  0
   27.2857    0.8946   23.8249 H   0  0  0  0  0  0  0  0  0  0  0  0
   25.3935    3.0039   24.9131 H   0  0  0  0  0  0  0  0  0  0  0  0
   26.7153    2.0442   25.7639 H   0  0  0  0  0  0  0  0  0  0  0  0
   28.6061    3.3284   26.2738 H   0  0  0  0  0  0  0  0  0  0  0  0
   28.9890    2.3120   24.8430 H   0  0  0  0  0  0  0  0  0  0  0  0
   29.4104    4.0582   24.8430 H   0  0  0  0  0  0  0  0  0  0  0  0
   27.5260    5.0390   23.0567 H   0  0  0  0  0  0  0  0  0  0  0  0
   28.4031    3.4472   22.8091 H   0  0  0  0  0  0  0  0  0  0  0  0
   25.3805    3.8367   22.6536 H   0  0  0  0  0  0  0  0  0  0  0  0
   26.5045    3.7081   21.2483 H   0  0  0  0  0  0  0  0  0  0  0  0
   21.7758   -1.1553   22.2941 H   0  0  0  0  0  0  0  0  0  0  0  0
   20.0324   -2.2586   20.9140 H   0  0  0  0  0  0  0  0  0  0  0  0
   22.1177   -4.2072   15.4125 H   0  0  0  0  0  0  0  0  0  0  0  0
   23.6085   -2.6626   14.1439 H   0  0  0  0  0  0  0  0  0  0  0  0
   23.4660   -0.2020   14.5189 H   0  0  0  0  0  0  0  0  0  0  0  0
   21.8399    0.7199   16.1685 H   0  0  0  0  0  0  0  0  0  0  0  0
   20.3478   -0.8179   17.4449 H   0  0  0  0  0  0  0  0  0  0  0  0
  1  2  1  0
  2  3  1  0
  3  4  2  0
  3  5  1  0
  5  6  1  0
  6  7  2  0
  7  8  1  0
  8  9  2  0
  9 10  1  0
  9 11  1  0
 11 12  1  0
 12 13  2  0
 12 14  1  0
 14 15  2  0
 15 16  1  0
 16 17  1  0
 17 18  1  0
 18 19  2  0
 19 20  1  0
 20 21  1  0
 21 22  1  0
 21 23  1  0
 23 24  2  0
 23 25  1  0
 25 26  1  0
 26 27  1  0
 27 28  1  0
 28 29  1  0
 29 30  1  0
 29 31  1  0
 31 32  1  0
 20 33  2  0
 33 34  1  0
 15 35  1  0
 35 36  2  0
 36 37  1  0
 37 38  2  0
 38 39  1  0
 39 40  2  0
 10  5  2  0
 34 17  2  0
 40 35  1  0
 14  8  1  0
 32 26  1  0
  1 41  1  0
  1 42  1  0
  1 43  1  0
  6 44  1  0
  7 45  1  0
 10 46  1  0
 11 47  1  0
 16 48  1  0
 18 49  1  0
 19 50  1  0
 22 51  1  0
 22 52  1  0
 22 53  1  0
 25 54  1  0
 25 55  1  0
 27 56  1  0
 27 57  1  0
 28 58  1  0
 28 59  1  0
 30 60  1  0
 30 61  1  0
 30 62  1  0
 31 63  1  0
 31 64  1  0
 32 65  1  0
 32 66  1  0
 33 67  1  0
 34 68  1  0
 36 69  1  0
 37 70  1  0
 38 71  1  0
 39 72  1  0
 40 73  1  0
M  END
>  <meeko>  (8) 
{"is_sidechain": false}

>  <vina_affinity_kcal_mol>  (8) 
-1.932

>  <pose_rank>  (8) 
8

$$$$

     RDKit          3D

 73 77  0  0  0  0  0  0  0  0999 V2000
   26.0560    1.9500   11.4210 C   0  0  0  0  0  0  0  0  0  0  0  0
   25.7090    0.9750   10.4360 O   0  0  0  0  0  0  0  0  0  0  0  0
   26.0610   -0.2910   10.7670 C   0  0  0  0  0  0  0  0  0  0  0  0
   27.0900   -0.8590   10.4360 O   0  0  0  0  0  0  0  0  0  0  0  0
   25.0120   -0.9280   11.6100 C   0  0  0  0  0  0  0  0  0  0  0  0
   24.5440   -2.2380   11.3700 C   0  0  0  0  0  0  0  0  0  0  0  0
   23.5530   -2.8140   12.1810 C   0  0  0  0  0  0  0  0  0  0  0  0
   23.0340   -2.0730   13.2290 C   0  0  0  0  0  0  0  0  0  0  0  0
   23.5110   -0.7750   13.4510 C   0  0  0  0  0  0  0  0  0  0  0  0
   24.4850   -0.1810   12.6700 C   0  0  0  0  0  0  0  0  0  0  0  0
   22.8730   -0.1940   14.5400 N   0  0  0  0  0  0  0  0  0  0  0  0
   21.9450   -1.0530   15.0940 C   0  0  0  0  0  0  0  0  0  0  0  0
   21.2100   -0.8300   16.0400 O   0  0  0  0  0  0  0  0  0  0  0  0
   22.0190   -2.3180   14.2720 C   0  0  0  0  0  0  0  0  0  0  0  0
   21.2230   -3.3730   14.5650 C   0  0  0  0  0  0  0  0  0  0  0  0
   20.3370   -3.4020   15.6520 N   0  0  0  0  0  0  0  0  0  0  0  0
   20.7040   -3.2730   17.0110 C   0  0  0  0  0  0  0  0  0  0  0  0
   19.8180   -3.5500   18.0490 C   0  0  0  0  0  0  0  0  0  0  0  0
   20.1950   -3.3650   19.3870 C   0  0  0  0  0  0  0  0  0  0  0  0
   21.4730   -2.8950   19.7350 C   0  0  0  0  0  0  0  0  0  0  0  0
   21.8360   -2.6950   21.1200 N   0  0  0  0  0  0  0  0  0  0  0  0
   21.7040   -3.8520   22.0100 C   0  0  0  0  0  0  0  0  0  0  0  0
   22.3920   -1.4750   21.5780 C   0  0  0  0  0  0  0  0  0  0  0  0
   21.7390   -0.5860   22.1300 O   0  0  0  0  0  0  0  0  0  0  0  0
   23.9120   -1.2960   21.3330 C   0  0  0  0  0  0  0  0  0  0  0  0
   24.5970   -0.3150   22.1960 N   0  0  0  0  0  0  0  0  0  0  0  0
   24.4040    1.0890   21.7910 C   0  0  0  0  0  0  0  0  0  0  0  0
   25.7090    1.9120   21.6390 C   0  0  0  0  0  0  0  0  0  0  0  0
   26.6610    1.8010   22.7610 N   0  0  0  0  0  0  0  0  0  0  0  0
   26.4110    2.8100   23.7860 C   0  0  0  0  0  0  0  0  0  0  0  0
   26.6560    0.4440   23.3470 C   0  0  0  0  0  0  0  0  0  0  0  0
   26.0070   -0.6360   22.4510 C   0  0  0  0  0  0  0  0  0  0  0  0
   22.3510   -2.6120   18.6820 C   0  0  0  0  0  0  0  0  0  0  0  0
   21.9740   -2.7960   17.3420 C   0  0  0  0  0  0  0  0  0  0  0  0
   21.3120   -4.5890   13.7270 C   0  0  0  0  0  0  0  0  0  0  0  0
   21.0270   -4.5310   12.3560 C   0  0  0  0  0  0  0  0  0  0  0  0
   21.1210   -5.6800   11.5690 C   0  0  0  0  0  0  0  0  0  0  0  0
   21.5000   -6.8920   12.1470 C   0  0  0  0  0  0  0  0  0  0  0  0
   21.7810   -6.9590   13.5110 C   0  0  0  0  0  0  0  0  0  0  0  0
   21.6870   -5.8120   14.3010 C   0  0  0  0  0  0  0  0  0  0  0  0
   25.9053    1.5266   12.4250 H   0  0  0  0  0  0  0  0  0  0  0  0
   27.1111    2.2359   11.2982 H   0  0  0  0  0  0  0  0  0  0  0  0
   25.4188    2.8382   11.2982 H   0  0  0  0  0  0  0  0  0  0  0  0
   24.9626   -2.8172   10.5338 H   0  0  0  0  0  0  0  0  0  0  0  0
   23.1953   -3.8360   11.9871 H   0  0  0  0  0  0  0  0  0  0  0  0
   24.8334    0.8422   12.8743 H   0  0  0  0  0  0  0  0  0  0  0  0
   23.0340    0.7380   14.8940 H   0  0  0  0  0  0  0  0  0  0  0  0
   19.6430   -4.1510   15.5390 H   0  0  0  0  0  0  0  0  0  0  0  0
   18.8083   -3.9191   17.8162 H   0  0  0  0  0  0  0  0  0  0  0  0
   19.4723   -3.5935   20.1842 H   0  0  0  0  0  0  0  0  0  0  0  0
   21.7424   -3.5157   23.0566 H   0  0  0  0  0  0  0  0  0  0  0  0
   20.7429   -4.3525   21.8207 H   0  0  0  0  0  0  0  0  0  0  0  0
   22.5276   -4.5561   21.8207 H   0  0  0  0  0  0  0  0  0  0  0  0
   24.3944   -2.2727   21.4857 H   0  0  0  0  0  0  0  0  0  0  0  0
   24.0023   -0.9032   20.3095 H   0  0  0  0  0  0  0  0  0  0  0  0
   23.8812    1.0963   20.8232 H   0  0  0  0  0  0  0  0  0  0  0  0
   23.8317    1.5666   22.5999 H   0  0  0  0  0  0  0  0  0  0  0  0
   26.2197    1.5729   20.7257 H   0  0  0  0  0  0  0  0  0  0  0  0
   25.4001    2.9672   21.6066 H   0  0  0  0  0  0  0  0  0  0  0  0
   26.5233    2.3566   24.7819 H   0  0  0  0  0  0  0  0  0  0  0  0
   27.1324    3.6328   23.6742 H   0  0  0  0  0  0  0  0  0  0  0  0
   25.3889    3.2008   23.6742 H   0  0  0  0  0  0  0  0  0  0  0  0
   27.6978    0.1493   23.5413 H   0  0  0  0  0  0  0  0  0  0  0  0
   26.0483    0.4994   24.2622 H   0  0  0  0  0  0  0  0  0  0  0  0
   26.5462   -0.6834   21.4934 H   0  0  0  0  0  0  0  0  0  0  0  0
   26.0629   -1.6060   22.9667 H   0  0  0  0  0  0  0  0  0  0  0  0
   23.3597   -2.2368   18.9096 H   0  0  0  0  0  0  0  0  0  0  0  0
   22.6900   -2.5608   16.5407 H   0  0  0  0  0  0  0  0  0  0  0  0
   20.7281   -3.5764   11.8984 H   0  0  0  0  0  0  0  0  0  0  0  0
   20.8963   -5.6299   10.4934 H   0  0  0  0  0  0  0  0  0  0  0  0
   21.5772   -7.7963   11.5255 H   0  0  0  0  0  0  0  0  0  0  0  0
   22.0769   -7.9163   13.9649 H   0  0  0  0  0  0  0  0  0  0  0  0
   21.9078   -5.8678   15.3772 H   0  0  0  0  0  0  0  0  0  0  0  0
  1  2  1  0
  2  3  1  0
  3  4  2  0
  3  5  1  0
  5  6  1  0
  6  7  2  0
  7  8  1  0
  8  9  2  0
  9 10  1  0
  9 11  1  0
 11 12  1  0
 12 13  2  0
 12 14  1  0
 14 15  2  0
 15 16  1  0
 16 17  1  0
 17 18  1  0
 18 19  2  0
 19 20  1  0
 20 21  1  0
 21 22  1  0
 21 23  1  0
 23 24  2  0
 23 25  1  0
 25 26  1  0
 26 27  1  0
 27 28  1  0
 28 29  1  0
 29 30  1  0
 29 31  1  0
 31 32  1  0
 20 33  2  0
 33 34  1  0
 15 35  1  0
 35 36  2  0
 36 37  1  0
 37 38  2  0
 38 39  1  0
 39 40  2  0
 10  5  2  0
 34 17  2  0
 40 35  1  0
 14  8  1  0
 32 26  1  0
  1 41  1  0
  1 42  1  0
  1 43  1  0
  6 44  1  0
  7 45  1  0
 10 46  1  0
 11 47  1  0
 16 48  1  0
 18 49  1  0
 19 50  1  0
 22 51  1  0
 22 52  1  0
 22 53  1  0
 25 54  1  0
 25 55  1  0
 27 56  1  0
 27 57  1  0
 28 58  1  0
 28 59  1  0
 30 60  1  0
 30 61  1  0
 30 62  1  0
 31 63  1  0
 31 64  1  0
 32 65  1  0
 32 66  1  0
 33 67  1  0
 34 68  1  0
 36 69  1  0
 37 70  1  0
 38 71  1  0
 39 72  1  0
 40 73  1  0
M  END
>  <meeko>  (9) 
{"is_sidechain": false}

>  <vina_affinity_kcal_mol>  (9) 
-1.77

>  <pose_rank>  (9) 
9

$$$$
