
     RDKit          3D

 54 57  0  0  0  0  0  0  0  0999 V2000
   -6.2993   -2.9317    1.8425 C   0  0  0  0  0  0  0  0  0  0  0  0
   -5.1074   -2.1265    1.4090 C   0  0  0  0  0  0  0  0  0  0  0  0
   -3.8299   -2.6362    1.6769 C   0  0  0  0  0  0  0  0  0  0  0  0
   -2.6803   -1.9388    1.2913 C   0  0  0  0  0  0  0  0  0  0  0  0
   -2.7566   -0.7169    0.6104 C   0  0  0  0  0  0  0  0  0  0  0  0
   -1.5666   -0.0591    0.2895 N   0  0  0  0  0  0  0  0  0  0  0  0
   -1.2657    1.1537   -0.3242 C   0  0  0  0  0  0  0  0  0  0  0  0
   -2.2089    2.0432   -0.6394 N   0  0  0  0  0  0  0  0  0  0  0  0
   -1.7983    3.1686   -1.2369 C   0  0  0  0  0  0  0  0  0  0  0  0
   -0.4814    3.4416   -1.5220 C   0  0  0  0  0  0  0  0  0  0  0  0
    0.4532    2.4877   -1.1646 C   0  0  0  0  0  0  0  0  0  0  0  0
    1.8380    2.6587   -1.3914 N   0  0  0  0  0  0  0  0  0  0  0  0
    2.3312    3.9628   -1.8325 C   0  0  0  0  0  0  0  0  0  0  0  0
    2.8431    1.7077   -1.0393 C   0  0  0  0  0  0  0  0  0  0  0  0
    3.9947    2.1219   -0.2726 C   0  0  0  0  0  0  0  0  0  0  0  0
    5.0514    1.2742    0.1314 C   0  0  0  0  0  0  0  0  0  0  0  0
    4.8420   -0.0301   -0.2995 C   0  0  0  0  0  0  0  0  0  0  0  0
    5.6746   -1.0999   -0.0756 C   0  0  0  0  0  0  0  0  0  0  0  0
    6.9711   -1.2408    0.6302 C   0  0  0  0  0  0  0  0  0  0  0  0
    5.0311   -2.1527   -0.6830 N   0  0  0  0  0  0  0  0  0  0  0  0
    5.4831   -3.5244   -0.7438 C   0  0  0  0  0  0  0  0  0  0  0  0
    3.8669   -1.8281   -1.2802 N   0  0  0  0  0  0  0  0  0  0  0  0
    3.7165   -0.5129   -1.0565 C   0  0  0  0  0  0  0  0  0  0  0  0
    2.6830    0.3553   -1.4453 C   0  0  0  0  0  0  0  0  0  0  0  0
    0.0388    1.3537   -0.5604 N   0  0  0  0  0  0  0  0  0  0  0  0
   -4.0289   -0.2096    0.3383 C   0  0  0  0  0  0  0  0  0  0  0  0
   -5.1930   -0.9008    0.7248 C   0  0  0  0  0  0  0  0  0  0  0  0
   -6.7577   -0.1499    0.3103 S   0  0  0  0  0  0  0  0  0  0  0  0
   -7.1820    0.5627    1.7782 N   0  0  0  0  0  0  0  0  0  0  0  0
   -7.7390   -1.1826    0.0705 O   0  0  0  0  0  0  0  0  0  0  0  0
   -6.5389    0.9208   -0.6336 O   0  0  0  0  0  0  0  0  0  0  0  0
   -7.0238   -2.3080    2.3741 H   0  0  0  0  0  0  0  0  0  0  0  0
   -6.0089   -3.7271    2.5383 H   0  0  0  0  0  0  0  0  0  0  0  0
   -6.7719   -3.4086    0.9789 H   0  0  0  0  0  0  0  0  0  0  0  0
   -3.7116   -3.5875    2.1933 H   0  0  0  0  0  0  0  0  0  0  0  0
   -1.7092   -2.3684    1.5305 H   0  0  0  0  0  0  0  0  0  0  0  0
   -0.7041   -0.5743    0.4028 H   0  0  0  0  0  0  0  0  0  0  0  0
   -2.5864    3.8716   -1.4906 H   0  0  0  0  0  0  0  0  0  0  0  0
   -0.2324    4.3736   -2.0058 H   0  0  0  0  0  0  0  0  0  0  0  0
    2.2036    4.7145   -1.0454 H   0  0  0  0  0  0  0  0  0  0  0  0
    3.3915    3.9420   -2.1133 H   0  0  0  0  0  0  0  0  0  0  0  0
    1.8113    4.2975   -2.7373 H   0  0  0  0  0  0  0  0  0  0  0  0
    4.0542    3.1604    0.0537 H   0  0  0  0  0  0  0  0  0  0  0  0
    5.8935    1.6224    0.7114 H   0  0  0  0  0  0  0  0  0  0  0  0
    6.8457   -1.8278    1.5456 H   0  0  0  0  0  0  0  0  0  0  0  0
    7.3875   -0.2687    0.9100 H   0  0  0  0  0  0  0  0  0  0  0  0
    7.7081   -1.7423   -0.0054 H   0  0  0  0  0  0  0  0  0  0  0  0
    6.3473   -3.5691   -1.4108 H   0  0  0  0  0  0  0  0  0  0  0  0
    4.6792   -4.1574   -1.1289 H   0  0  0  0  0  0  0  0  0  0  0  0
    5.7531   -3.8493    0.2638 H   0  0  0  0  0  0  0  0  0  0  0  0
    1.8359    0.0085   -2.0202 H   0  0  0  0  0  0  0  0  0  0  0  0
   -4.1319    0.7359   -0.1883 H   0  0  0  0  0  0  0  0  0  0  0  0
   -6.4086    0.5965    2.4411 H   0  0  0  0  0  0  0  0  0  0  0  0
   -8.0068    0.0940    2.1531 H   0  0  0  0  0  0  0  0  0  0  0  0
  1  2  1  0
  2  3  1  0
  3  4  2  0
  4  5  1  0
  5  6  1  0
  6  7  1  0
  7  8  2  0
  8  9  1  0
  9 10  2  0
 10 11  1  0
 11 12  1  0
 12 13  1  0
 12 14  1  0
 14 15  1  0
 15 16  2  0
 16 17  1  0
 17 18  2  0
 18 19  1  0
 18 20  1  0
 20 21  1  0
 20 22  1  0
 22 23  2  0
 23 24  1  0
 11 25  2  0
  5 26  2  0
 26 27  1  0
 27 28  1  0
 28 29  1  0
 28 30  2  0
 28 31  2  0
 27  2  2  0
 25  7  1  0
 24 14  2  0
 23 17  1  0
  1 32  1  0
  1 33  1  0
  1 34  1  0
  3 35  1  0
  4 36  1  0
  6 37  1  0
  9 38  1  0
 10 39  1  0
 13 40  1  0
 13 41  1  0
 13 42  1  0
 15 43  1  0
 16 44  1  0
 19 45  1  0
 19 46  1  0
 19 47  1  0
 21 48  1  0
 21 49  1  0
 21 50  1  0
 24 51  1  0
 26 52  1  0
 29 53  1  0
 29 54  1  0
M  END
$$$$
