
     RDKit          3D

 54 57  0  0  0  0  0  0  0  0999 V2000
  -34.4360  157.2580    6.8270 C   0  0  0  0  0  0  0  0  0  0  0  0
  -35.5110  157.0770    5.7920 C   0  0  0  0  0  0  0  0  0  0  0  0
  -36.1120  158.2220    5.2540 C   0  0  0  0  0  0  0  0  0  0  0  0
  -37.1120  158.1220    4.2810 C   0  0  0  0  0  0  0  0  0  0  0  0
  -37.5400  156.8800    3.7940 C   0  0  0  0  0  0  0  0  0  0  0  0
  -38.5700  156.8560    2.8510 N   0  0  0  0  0  0  0  0  0  0  0  0
  -39.2650  157.8390    2.1500 C   0  0  0  0  0  0  0  0  0  0  0  0
  -40.1730  158.6200    2.7360 N   0  0  0  0  0  0  0  0  0  0  0  0
  -40.7840  159.5220    1.9560 C   0  0  0  0  0  0  0  0  0  0  0  0
  -40.5140  159.6760    0.6170 C   0  0  0  0  0  0  0  0  0  0  0  0
  -39.5580  158.8440    0.0660 C   0  0  0  0  0  0  0  0  0  0  0  0
  -39.1820  158.9170   -1.2950 N   0  0  0  0  0  0  0  0  0  0  0  0
  -39.0760  157.6810   -2.0700 C   0  0  0  0  0  0  0  0  0  0  0  0
  -39.0780  160.1260   -2.0470 C   0  0  0  0  0  0  0  0  0  0  0  0
  -39.2540  161.4020   -1.3940 C   0  0  0  0  0  0  0  0  0  0  0  0
  -39.1760  162.6600   -2.0330 C   0  0  0  0  0  0  0  0  0  0  0  0
  -38.8990  162.5210   -3.3870 C   0  0  0  0  0  0  0  0  0  0  0  0
  -38.7580  163.5430   -4.2950 C   0  0  0  0  0  0  0  0  0  0  0  0
  -38.8440  165.0190   -4.1750 C   0  0  0  0  0  0  0  0  0  0  0  0
  -38.4840  162.9000   -5.4790 N   0  0  0  0  0  0  0  0  0  0  0  0
  -38.2460  163.5160   -6.7630 C   0  0  0  0  0  0  0  0  0  0  0  0
  -38.4530  161.5550   -5.3910 N   0  0  0  0  0  0  0  0  0  0  0  0
  -38.7030  161.2850   -4.1000 C   0  0  0  0  0  0  0  0  0  0  0  0
  -38.7890  160.0490   -3.4370 C   0  0  0  0  0  0  0  0  0  0  0  0
  -38.9400  157.9370    0.8520 N   0  0  0  0  0  0  0  0  0  0  0  0
  -36.9390  155.7380    4.3260 C   0  0  0  0  0  0  0  0  0  0  0  0
  -35.9340  155.8270    5.3080 C   0  0  0  0  0  0  0  0  0  0  0  0
  -35.2400  154.2920    5.8990 S   0  0  0  0  0  0  0  0  0  0  0  0
  -36.2070  153.1640    5.1030 N   0  0  0  0  0  0  0  0  0  0  0  0
  -35.5300  154.1430    7.3070 O   0  0  0  0  0  0  0  0  0  0  0  0
  -33.9000  154.1430    5.3810 O   0  0  0  0  0  0  0  0  0  0  0  0
  -34.8779  157.1836    7.8316 H   0  0  0  0  0  0  0  0  0  0  0  0
  -33.6726  156.4757    6.7034 H   0  0  0  0  0  0  0  0  0  0  0  0
  -33.9708  158.2471    6.7034 H   0  0  0  0  0  0  0  0  0  0  0  0
  -35.7927  159.2154    5.6020 H   0  0  0  0  0  0  0  0  0  0  0  0
  -37.5733  159.0404    3.8889 H   0  0  0  0  0  0  0  0  0  0  0  0
  -39.0270  155.9700    2.6810 H   0  0  0  0  0  0  0  0  0  0  0  0
  -41.5429  160.1748    2.4120 H   0  0  0  0  0  0  0  0  0  0  0  0
  -41.0368  160.4296    0.0098 H   0  0  0  0  0  0  0  0  0  0  0  0
  -39.0025  156.8237   -1.3847 H   0  0  0  0  0  0  0  0  0  0  0  0
  -39.9678  157.5682   -2.7041 H   0  0  0  0  0  0  0  0  0  0  0  0
  -38.1780  157.7216   -2.7041 H   0  0  0  0  0  0  0  0  0  0  0  0
  -39.4654  161.3941   -0.3145 H   0  0  0  0  0  0  0  0  0  0  0  0
  -39.3165  163.6249   -1.5238 H   0  0  0  0  0  0  0  0  0  0  0  0
  -38.8604  165.3001   -3.1116 H   0  0  0  0  0  0  0  0  0  0  0  0
  -37.9711  165.4780   -4.6622 H   0  0  0  0  0  0  0  0  0  0  0  0
  -39.7643  165.3735   -4.6622 H   0  0  0  0  0  0  0  0  0  0  0  0
  -37.8532  164.5327   -6.6147 H   0  0  0  0  0  0  0  0  0  0  0  0
  -37.5140  162.9186   -7.3262 H   0  0  0  0  0  0  0  0  0  0  0  0
  -39.1895  163.5660   -7.3262 H   0  0  0  0  0  0  0  0  0  0  0  0
  -38.6432  159.0903   -3.9563 H   0  0  0  0  0  0  0  0  0  0  0  0
  -37.2575  154.7470    3.9703 H   0  0  0  0  0  0  0  0  0  0  0  0
  -36.0130  153.1090    4.1040 H   0  0  0  0  0  0  0  0  0  0  0  0
  -37.1880  153.3590    5.3060 H   0  0  0  0  0  0  0  0  0  0  0  0
  1  2  1  0
  2  3  1  0
  3  4  2  0
  4  5  1  0
  5  6  1  0
  6  7  1  0
  7  8  2  0
  8  9  1  0
  9 10  2  0
 10 11  1  0
 11 12  1  0
 12 13  1  0
 12 14  1  0
 14 15  1  0
 15 16  2  0
 16 17  1  0
 17 18  2  0
 18 19  1  0
 18 20  1  0
 20 21  1  0
 20 22  1  0
 22 23  2  0
 23 24  1  0
 11 25  2  0
  5 26  2  0
 26 27  1  0
 27 28  1  0
 28 29  1  0
 28 30  2  0
 28 31  2  0
 27  2  2  0
 25  7  1  0
 24 14  2  0
 23 17  1  0
  1 32  1  0
  1 33  1  0
  1 34  1  0
  3 35  1  0
  4 36  1  0
  6 37  1  0
  9 38  1  0
 10 39  1  0
 13 40  1  0
 13 41  1  0
 13 42  1  0
 15 43  1  0
 16 44  1  0
 19 45  1  0
 19 46  1  0
 19 47  1  0
 21 48  1  0
 21 49  1  0
 21 50  1  0
 24 51  1  0
 26 52  1  0
 29 53  1  0
 29 54  1  0
M  END
>  <meeko>  (1) 
{"is_sidechain": false}

>  <vina_affinity_kcal_mol>  (1) 
-11.021

>  <pose_rank>  (1) 
1

$$$$

     RDKit          3D

 54 57  0  0  0  0  0  0  0  0999 V2000
  -36.2660  154.4570    6.6910 C   0  0  0  0  0  0  0  0  0  0  0  0
  -36.5070  155.5160    5.6520 C   0  0  0  0  0  0  0  0  0  0  0  0
  -37.7680  155.5700    5.0440 C   0  0  0  0  0  0  0  0  0  0  0  0
  -38.0600  156.5370    4.0750 C   0  0  0  0  0  0  0  0  0  0  0  0
  -37.1140  157.4950    3.6880 C   0  0  0  0  0  0  0  0  0  0  0  0
  -37.4630  158.4060    2.6870 N   0  0  0  0  0  0  0  0  0  0  0  0
  -38.6300  158.6560    1.9700 C   0  0  0  0  0  0  0  0  0  0  0  0
  -39.8050  158.8450    2.5710 N   0  0  0  0  0  0  0  0  0  0  0  0
  -40.8590  159.0670    1.7740 C   0  0  0  0  0  0  0  0  0  0  0  0
  -40.7790  159.1160    0.4020 C   0  0  0  0  0  0  0  0  0  0  0  0
  -39.5330  158.9220   -0.1640 C   0  0  0  0  0  0  0  0  0  0  0  0
  -39.3190  158.9640   -1.5610 N   0  0  0  0  0  0  0  0  0  0  0  0
  -39.4540  157.7340   -2.3390 C   0  0  0  0  0  0  0  0  0  0  0  0
  -39.1660  160.1610   -2.3240 C   0  0  0  0  0  0  0  0  0  0  0  0
  -39.2730  161.4490   -1.6800 C   0  0  0  0  0  0  0  0  0  0  0  0
  -39.1420  162.6970   -2.3310 C   0  0  0  0  0  0  0  0  0  0  0  0
  -38.8880  162.5340   -3.6860 C   0  0  0  0  0  0  0  0  0  0  0  0
  -38.7080  163.5420   -4.6040 C   0  0  0  0  0  0  0  0  0  0  0  0
  -38.7220  165.0200   -4.4960 C   0  0  0  0  0  0  0  0  0  0  0  0
  -38.4790  162.8760   -5.7850 N   0  0  0  0  0  0  0  0  0  0  0  0
  -38.2260  163.4700   -7.0780 C   0  0  0  0  0  0  0  0  0  0  0  0
  -38.5120  161.5320   -5.6860 N   0  0  0  0  0  0  0  0  0  0  0  0
  -38.7600  161.2850   -4.3900 C   0  0  0  0  0  0  0  0  0  0  0  0
  -38.8970  160.0600   -3.7170 C   0  0  0  0  0  0  0  0  0  0  0  0
  -38.4710  158.7010    0.6390 N   0  0  0  0  0  0  0  0  0  0  0  0
  -35.8590  157.4450    4.2970 C   0  0  0  0  0  0  0  0  0  0  0  0
  -35.5530  156.4740    5.2690 C   0  0  0  0  0  0  0  0  0  0  0  0
  -33.9150  156.5230    5.9780 S   0  0  0  0  0  0  0  0  0  0  0  0
  -33.1570  157.6490    4.9780 N   0  0  0  0  0  0  0  0  0  0  0  0
  -33.2490  155.2640    5.7370 O   0  0  0  0  0  0  0  0  0  0  0  0
  -33.9830  157.1050    7.2980 O   0  0  0  0  0  0  0  0  0  0  0  0
  -36.3663  154.8977    7.6939 H   0  0  0  0  0  0  0  0  0  0  0  0
  -37.0034  153.6498    6.5698 H   0  0  0  0  0  0  0  0  0  0  0  0
  -35.2519  154.0484    6.5698 H   0  0  0  0  0  0  0  0  0  0  0  0
  -38.5402  154.8416    5.3324 H   0  0  0  0  0  0  0  0  0  0  0  0
  -39.0553  156.5449    3.6066 H   0  0  0  0  0  0  0  0  0  0  0  0
  -36.7190  158.9530    2.2750 H   0  0  0  0  0  0  0  0  0  0  0  0
  -41.8424  159.2184    2.2430 H   0  0  0  0  0  0  0  0  0  0  0  0
  -41.6683  159.3016   -0.2183 H   0  0  0  0  0  0  0  0  0  0  0  0
  -39.5481  156.8767   -1.6562 H   0  0  0  0  0  0  0  0  0  0  0  0
  -40.3505  157.7978   -2.9732 H   0  0  0  0  0  0  0  0  0  0  0  0
  -38.5650  157.6018   -2.9732 H   0  0  0  0  0  0  0  0  0  0  0  0
  -39.4720  161.4599   -0.5982 H   0  0  0  0  0  0  0  0  0  0  0  0
  -39.2300  163.6716   -1.8286 H   0  0  0  0  0  0  0  0  0  0  0  0
  -38.7247  165.3101   -3.4349 H   0  0  0  0  0  0  0  0  0  0  0  0
  -37.8277  165.4320   -4.9864 H   0  0  0  0  0  0  0  0  0  0  0  0
  -39.6239  165.4150   -4.9864 H   0  0  0  0  0  0  0  0  0  0  0  0
  -37.7982  164.4743   -6.9427 H   0  0  0  0  0  0  0  0  0  0  0  0
  -37.5173  162.8419   -7.6377 H   0  0  0  0  0  0  0  0  0  0  0  0
  -39.1699  163.5458   -7.6377 H   0  0  0  0  0  0  0  0  0  0  0  0
  -38.8030  159.0917   -4.2304 H   0  0  0  0  0  0  0  0  0  0  0  0
  -35.0925  158.1804    4.0111 H   0  0  0  0  0  0  0  0  0  0  0  0
  -32.1430  157.5510    4.9680 H   0  0  0  0  0  0  0  0  0  0  0  0
  -33.4620  158.5880    5.2380 H   0  0  0  0  0  0  0  0  0  0  0  0
  1  2  1  0
  2  3  1  0
  3  4  2  0
  4  5  1  0
  5  6  1  0
  6  7  1  0
  7  8  2  0
  8  9  1  0
  9 10  2  0
 10 11  1  0
 11 12  1  0
 12 13  1  0
 12 14  1  0
 14 15  1  0
 15 16  2  0
 16 17  1  0
 17 18  2  0
 18 19  1  0
 18 20  1  0
 20 21  1  0
 20 22  1  0
 22 23  2  0
 23 24  1  0
 11 25  2  0
  5 26  2  0
 26 27  1  0
 27 28  1  0
 28 29  1  0
 28 30  2  0
 28 31  2  0
 27  2  2  0
 25  7  1  0
 24 14  2  0
 23 17  1  0
  1 32  1  0
  1 33  1  0
  1 34  1  0
  3 35  1  0
  4 36  1  0
  6 37  1  0
  9 38  1  0
 10 39  1  0
 13 40  1  0
 13 41  1  0
 13 42  1  0
 15 43  1  0
 16 44  1  0
 19 45  1  0
 19 46  1  0
 19 47  1  0
 21 48  1  0
 21 49  1  0
 21 50  1  0
 24 51  1  0
 26 52  1  0
 29 53  1  0
 29 54  1  0
M  END
>  <meeko>  (2) 
{"is_sidechain": false}

>  <vina_affinity_kcal_mol>  (2) 
-10.634

>  <pose_rank>  (2) 
2

$$$$

     RDKit          3D

 54 57  0  0  0  0  0  0  0  0999 V2000
  -36.4520  162.6490  -10.4010 C   0  0  0  0  0  0  0  0  0  0  0  0
  -37.1010  163.2520   -9.1870 C   0  0  0  0  0  0  0  0  0  0  0  0
  -37.2270  162.4570   -8.0400 C   0  0  0  0  0  0  0  0  0  0  0  0
  -37.8130  162.9610   -6.8750 C   0  0  0  0  0  0  0  0  0  0  0  0
  -38.2830  164.2790   -6.8010 C   0  0  0  0  0  0  0  0  0  0  0  0
  -38.8920  164.7010   -5.6170 N   0  0  0  0  0  0  0  0  0  0  0  0
  -38.8310  164.2770   -4.2920 C   0  0  0  0  0  0  0  0  0  0  0  0
  -38.5900  165.1210   -3.2870 N   0  0  0  0  0  0  0  0  0  0  0  0
  -38.5440  164.5930   -2.0570 C   0  0  0  0  0  0  0  0  0  0  0  0
  -38.7410  163.2580   -1.7940 C   0  0  0  0  0  0  0  0  0  0  0  0
  -38.9960  162.4330   -2.8730 C   0  0  0  0  0  0  0  0  0  0  0  0
  -39.2300  161.0460   -2.7300 N   0  0  0  0  0  0  0  0  0  0  0  0
  -38.9820  160.1620   -3.8680 C   0  0  0  0  0  0  0  0  0  0  0  0
  -39.5120  160.3920   -1.4920 C   0  0  0  0  0  0  0  0  0  0  0  0
  -40.8430  160.4400   -0.9350 C   0  0  0  0  0  0  0  0  0  0  0  0
  -41.2390  159.8350    0.2790 C   0  0  0  0  0  0  0  0  0  0  0  0
  -40.1770  159.1710    0.8800 C   0  0  0  0  0  0  0  0  0  0  0  0
  -40.2220  158.4800    2.0680 C   0  0  0  0  0  0  0  0  0  0  0  0
  -41.3060  158.2190    3.0440 C   0  0  0  0  0  0  0  0  0  0  0  0
  -38.9400  158.0050    2.2220 N   0  0  0  0  0  0  0  0  0  0  0  0
  -38.4410  157.2050    3.3160 C   0  0  0  0  0  0  0  0  0  0  0  0
  -38.0920  158.3520    1.2340 N   0  0  0  0  0  0  0  0  0  0  0  0
  -38.8310  159.0750    0.3780 C   0  0  0  0  0  0  0  0  0  0  0  0
  -38.4670  159.6900   -0.8310 C   0  0  0  0  0  0  0  0  0  0  0  0
  -39.0440  162.9650   -4.1130 N   0  0  0  0  0  0  0  0  0  0  0  0
  -38.1550  165.0740   -7.9410 C   0  0  0  0  0  0  0  0  0  0  0  0
  -37.5690  164.5760   -9.1210 C   0  0  0  0  0  0  0  0  0  0  0  0
  -37.4560  165.6960  -10.5060 S   0  0  0  0  0  0  0  0  0  0  0  0
  -38.2160  167.0670   -9.8850 N   0  0  0  0  0  0  0  0  0  0  0  0
  -38.3010  165.2220  -11.5780 O   0  0  0  0  0  0  0  0  0  0  0  0
  -36.0720  166.0430  -10.7290 O   0  0  0  0  0  0  0  0  0  0  0  0
  -35.6799  161.9317  -10.0859 H   0  0  0  0  0  0  0  0  0  0  0  0
  -37.2119  162.1290  -11.0029 H   0  0  0  0  0  0  0  0  0  0  0  0
  -35.9892  163.4450  -11.0029 H   0  0  0  0  0  0  0  0  0  0  0  0
  -36.8592  161.4204   -8.0565 H   0  0  0  0  0  0  0  0  0  0  0  0
  -37.9074  162.3072   -5.9954 H   0  0  0  0  0  0  0  0  0  0  0  0
  -39.6320  165.3870   -5.6910 H   0  0  0  0  0  0  0  0  0  0  0  0
  -38.3372  165.2645   -1.2106 H   0  0  0  0  0  0  0  0  0  0  0  0
  -38.6975  162.8633   -0.7682 H   0  0  0  0  0  0  0  0  0  0  0  0
  -38.7018  159.1632   -3.5022 H   0  0  0  0  0  0  0  0  0  0  0  0
  -39.8936  160.0863   -4.4790 H   0  0  0  0  0  0  0  0  0  0  0  0
  -38.1641  160.5715   -4.4790 H   0  0  0  0  0  0  0  0  0  0  0  0
  -41.6092  160.9909   -1.5001 H   0  0  0  0  0  0  0  0  0  0  0  0
  -42.2564  159.8835    0.6944 H   0  0  0  0  0  0  0  0  0  0  0  0
  -40.9101  158.3143    4.0659 H   0  0  0  0  0  0  0  0  0  0  0  0
  -42.1165  158.9477    2.8953 H   0  0  0  0  0  0  0  0  0  0  0  0
  -41.6960  157.2013    2.8953 H   0  0  0  0  0  0  0  0  0  0  0  0
  -38.7301  157.6685    4.2708 H   0  0  0  0  0  0  0  0  0  0  0  0
  -38.8685  156.1933    3.2552 H   0  0  0  0  0  0  0  0  0  0  0  0
  -37.3444  157.1439    3.2552 H   0  0  0  0  0  0  0  0  0  0  0  0
  -37.4465  159.6327   -1.2375 H   0  0  0  0  0  0  0  0  0  0  0  0
  -38.5195  166.1116   -7.9174 H   0  0  0  0  0  0  0  0  0  0  0  0
  -38.9790  167.3980  -10.4730 H   0  0  0  0  0  0  0  0  0  0  0  0
  -37.5150  167.7850   -9.7010 H   0  0  0  0  0  0  0  0  0  0  0  0
  1  2  1  0
  2  3  1  0
  3  4  2  0
  4  5  1  0
  5  6  1  0
  6  7  1  0
  7  8  2  0
  8  9  1  0
  9 10  2  0
 10 11  1  0
 11 12  1  0
 12 13  1  0
 12 14  1  0
 14 15  1  0
 15 16  2  0
 16 17  1  0
 17 18  2  0
 18 19  1  0
 18 20  1  0
 20 21  1  0
 20 22  1  0
 22 23  2  0
 23 24  1  0
 11 25  2  0
  5 26  2  0
 26 27  1  0
 27 28  1  0
 28 29  1  0
 28 30  2  0
 28 31  2  0
 27  2  2  0
 25  7  1  0
 24 14  2  0
 23 17  1  0
  1 32  1  0
  1 33  1  0
  1 34  1  0
  3 35  1  0
  4 36  1  0
  6 37  1  0
  9 38  1  0
 10 39  1  0
 13 40  1  0
 13 41  1  0
 13 42  1  0
 15 43  1  0
 16 44  1  0
 19 45  1  0
 19 46  1  0
 19 47  1  0
 21 48  1  0
 21 49  1  0
 21 50  1  0
 24 51  1  0
 26 52  1  0
 29 53  1  0
 29 54  1  0
M  END
>  <meeko>  (3) 
{"is_sidechain": false}

>  <vina_affinity_kcal_mol>  (3) 
-10.379

>  <pose_rank>  (3) 
3

$$$$

     RDKit          3D

 54 57  0  0  0  0  0  0  0  0999 V2000
  -42.3420  160.6880    0.6200 C   0  0  0  0  0  0  0  0  0  0  0  0
  -41.2200  159.8190    1.1140 C   0  0  0  0  0  0  0  0  0  0  0  0
  -41.5010  158.8840    2.1190 C   0  0  0  0  0  0  0  0  0  0  0  0
  -40.5030  158.0380    2.6160 C   0  0  0  0  0  0  0  0  0  0  0  0
  -39.1930  158.0810    2.1210 C   0  0  0  0  0  0  0  0  0  0  0  0
  -38.2400  157.2330    2.6920 N   0  0  0  0  0  0  0  0  0  0  0  0
  -37.4450  157.2990    3.8330 C   0  0  0  0  0  0  0  0  0  0  0  0
  -37.4020  158.3850    4.6060 N   0  0  0  0  0  0  0  0  0  0  0  0
  -36.5920  158.3340    5.6710 C   0  0  0  0  0  0  0  0  0  0  0  0
  -35.8320  157.2350    5.9960 C   0  0  0  0  0  0  0  0  0  0  0  0
  -35.9240  156.1350    5.1640 C   0  0  0  0  0  0  0  0  0  0  0  0
  -35.2040  154.9420    5.4010 N   0  0  0  0  0  0  0  0  0  0  0  0
  -33.7660  155.0160    5.6550 C   0  0  0  0  0  0  0  0  0  0  0  0
  -35.8000  153.6600    5.6050 C   0  0  0  0  0  0  0  0  0  0  0  0
  -37.1890  153.5600    5.9880 C   0  0  0  0  0  0  0  0  0  0  0  0
  -37.8840  152.3520    6.2190 C   0  0  0  0  0  0  0  0  0  0  0  0
  -37.0590  151.2510    6.0260 C   0  0  0  0  0  0  0  0  0  0  0  0
  -37.4190  149.9330    6.1680 C   0  0  0  0  0  0  0  0  0  0  0  0
  -38.6900  149.2690    6.5450 C   0  0  0  0  0  0  0  0  0  0  0  0
  -36.2710  149.2410    5.8610 N   0  0  0  0  0  0  0  0  0  0  0  0
  -36.1020  147.8060    5.8550 C   0  0  0  0  0  0  0  0  0  0  0  0
  -35.2150  150.0180    5.5490 N   0  0  0  0  0  0  0  0  0  0  0  0
  -35.6720  151.2770    5.6370 C   0  0  0  0  0  0  0  0  0  0  0  0
  -35.0080  152.4950    5.4160 C   0  0  0  0  0  0  0  0  0  0  0  0
  -36.7430  156.1870    4.0920 N   0  0  0  0  0  0  0  0  0  0  0  0
  -38.9130  159.0090    1.1170 C   0  0  0  0  0  0  0  0  0  0  0  0
  -39.9090  159.8670    0.6120 C   0  0  0  0  0  0  0  0  0  0  0  0
  -39.4240  161.0020   -0.6780 S   0  0  0  0  0  0  0  0  0  0  0  0
  -38.0910  160.2050   -1.3360 N   0  0  0  0  0  0  0  0  0  0  0  0
  -38.9100  162.2140   -0.0830 O   0  0  0  0  0  0  0  0  0  0  0  0
  -40.4460  161.0320   -1.6970 O   0  0  0  0  0  0  0  0  0  0  0  0
  -42.8853  161.1088    1.4789 H   0  0  0  0  0  0  0  0  0  0  0  0
  -41.9310  161.5057    0.0097 H   0  0  0  0  0  0  0  0  0  0  0  0
  -43.0310  160.0856    0.0097 H   0  0  0  0  0  0  0  0  0  0  0  0
  -42.5215  158.8138    2.5235 H   0  0  0  0  0  0  0  0  0  0  0  0
  -40.7529  157.3229    3.4136 H   0  0  0  0  0  0  0  0  0  0  0  0
  -37.9380  156.4370    2.1470 H   0  0  0  0  0  0  0  0  0  0  0  0
  -36.5312  159.2192    6.3212 H   0  0  0  0  0  0  0  0  0  0  0  0
  -35.1784  157.2314    6.8808 H   0  0  0  0  0  0  0  0  0  0  0  0
  -33.5853  155.0253    6.7400 H   0  0  0  0  0  0  0  0  0  0  0  0
  -33.2693  154.1422    5.2080 H   0  0  0  0  0  0  0  0  0  0  0  0
  -33.3616  155.9362    5.2080 H   0  0  0  0  0  0  0  0  0  0  0  0
  -37.7499  154.4984    6.1094 H   0  0  0  0  0  0  0  0  0  0  0  0
  -38.9420  152.2910    6.5137 H   0  0  0  0  0  0  0  0  0  0  0  0
  -38.7706  149.2269    7.6412 H   0  0  0  0  0  0  0  0  0  0  0  0
  -39.5370  149.8398    6.1367 H   0  0  0  0  0  0  0  0  0  0  0  0
  -38.7053  148.2477    6.1367 H   0  0  0  0  0  0  0  0  0  0  0  0
  -36.0586  147.4376    6.8906 H   0  0  0  0  0  0  0  0  0  0  0  0
  -36.9513  147.3389    5.3349 H   0  0  0  0  0  0  0  0  0  0  0  0
  -35.1674  147.5490    5.3349 H   0  0  0  0  0  0  0  0  0  0  0  0
  -33.9503  152.5437    5.1179 H   0  0  0  0  0  0  0  0  0  0  0  0
  -37.8924  159.0716    0.7114 H   0  0  0  0  0  0  0  0  0  0  0  0
  -37.2320  160.3730   -0.8150 H   0  0  0  0  0  0  0  0  0  0  0  0
  -38.0110  160.4450   -2.3240 H   0  0  0  0  0  0  0  0  0  0  0  0
  1  2  1  0
  2  3  1  0
  3  4  2  0
  4  5  1  0
  5  6  1  0
  6  7  1  0
  7  8  2  0
  8  9  1  0
  9 10  2  0
 10 11  1  0
 11 12  1  0
 12 13  1  0
 12 14  1  0
 14 15  1  0
 15 16  2  0
 16 17  1  0
 17 18  2  0
 18 19  1  0
 18 20  1  0
 20 21  1  0
 20 22  1  0
 22 23  2  0
 23 24  1  0
 11 25  2  0
  5 26  2  0
 26 27  1  0
 27 28  1  0
 28 29  1  0
 28 30  2  0
 28 31  2  0
 27  2  2  0
 25  7  1  0
 24 14  2  0
 23 17  1  0
  1 32  1  0
  1 33  1  0
  1 34  1  0
  3 35  1  0
  4 36  1  0
  6 37  1  0
  9 38  1  0
 10 39  1  0
 13 40  1  0
 13 41  1  0
 13 42  1  0
 15 43  1  0
 16 44  1  0
 19 45  1  0
 19 46  1  0
 19 47  1  0
 21 48  1  0
 21 49  1  0
 21 50  1  0
 24 51  1  0
 26 52  1  0
 29 53  1  0
 29 54  1  0
M  END
>  <meeko>  (4) 
{"is_sidechain": false}

>  <vina_affinity_kcal_mol>  (4) 
-9.837

>  <pose_rank>  (4) 
4

$$$$

     RDKit          3D

 54 57  0  0  0  0  0  0  0  0999 V2000
  -42.0230  158.2060    2.7610 C   0  0  0  0  0  0  0  0  0  0  0  0
  -41.3470  159.1050    1.7650 C   0  0  0  0  0  0  0  0  0  0  0  0
  -42.1480  159.9600    0.9950 C   0  0  0  0  0  0  0  0  0  0  0  0
  -41.5790  160.8280    0.0570 C   0  0  0  0  0  0  0  0  0  0  0  0
  -40.1940  160.8900   -0.1410 C   0  0  0  0  0  0  0  0  0  0  0  0
  -39.7010  161.7530   -1.1220 N   0  0  0  0  0  0  0  0  0  0  0  0
  -39.3600  161.6000   -2.4640 C   0  0  0  0  0  0  0  0  0  0  0  0
  -39.2960  160.4020   -3.0480 N   0  0  0  0  0  0  0  0  0  0  0  0
  -38.9460  160.3820   -4.3410 C   0  0  0  0  0  0  0  0  0  0  0  0
  -38.6690  161.5120   -5.0720 C   0  0  0  0  0  0  0  0  0  0  0  0
  -38.7600  162.7260   -4.4170 C   0  0  0  0  0  0  0  0  0  0  0  0
  -38.5140  163.9590   -5.0640 N   0  0  0  0  0  0  0  0  0  0  0  0
  -38.2710  165.1510   -4.2540 C   0  0  0  0  0  0  0  0  0  0  0  0
  -38.2910  164.1110   -6.4660 C   0  0  0  0  0  0  0  0  0  0  0  0
  -37.9940  162.9570   -7.2810 C   0  0  0  0  0  0  0  0  0  0  0  0
  -37.7530  162.9850   -8.6740 C   0  0  0  0  0  0  0  0  0  0  0  0
  -37.8440  164.2770   -9.1750 C   0  0  0  0  0  0  0  0  0  0  0  0
  -37.6660  164.6530  -10.4840 C   0  0  0  0  0  0  0  0  0  0  0  0
  -37.3420  163.8950  -11.7170 C   0  0  0  0  0  0  0  0  0  0  0  0
  -37.8680  166.0130  -10.4690 N   0  0  0  0  0  0  0  0  0  0  0  0
  -37.7990  166.9100  -11.5990 C   0  0  0  0  0  0  0  0  0  0  0  0
  -38.1470  166.5240   -9.2530 N   0  0  0  0  0  0  0  0  0  0  0  0
  -38.1440  165.4680   -8.4230 C   0  0  0  0  0  0  0  0  0  0  0  0
  -38.3770  165.4090   -7.0400 C   0  0  0  0  0  0  0  0  0  0  0  0
  -39.1150  162.7470   -3.1140 N   0  0  0  0  0  0  0  0  0  0  0  0
  -39.3950  160.0420    0.6290 C   0  0  0  0  0  0  0  0  0  0  0  0
  -39.9560  159.1620    1.5740 C   0  0  0  0  0  0  0  0  0  0  0  0
  -38.8250  158.1370    2.4990 S   0  0  0  0  0  0  0  0  0  0  0  0
  -37.5590  157.9660    1.3990 N   0  0  0  0  0  0  0  0  0  0  0  0
  -39.3940  156.8190    2.6620 O   0  0  0  0  0  0  0  0  0  0  0  0
  -38.3130  158.8850    3.6230 O   0  0  0  0  0  0  0  0  0  0  0  0
  -41.7748  158.5361    3.7805 H   0  0  0  0  0  0  0  0  0  0  0  0
  -43.1124  158.2516    2.6159 H   0  0  0  0  0  0  0  0  0  0  0  0
  -41.6767  157.1721    2.6159 H   0  0  0  0  0  0  0  0  0  0  0  0
  -43.2396  159.9482    1.1304 H   0  0  0  0  0  0  0  0  0  0  0  0
  -42.2358  161.4780   -0.5399 H   0  0  0  0  0  0  0  0  0  0  0  0
  -39.4010  162.6730   -0.8280 H   0  0  0  0  0  0  0  0  0  0  0  0
  -38.8765  159.4069   -4.8454 H   0  0  0  0  0  0  0  0  0  0  0  0
  -38.3868  161.4531   -6.1335 H   0  0  0  0  0  0  0  0  0  0  0  0
  -38.3248  164.8869   -3.1875 H   0  0  0  0  0  0  0  0  0  0  0  0
  -37.2726  165.5522   -4.4824 H   0  0  0  0  0  0  0  0  0  0  0  0
  -39.0327  165.9111   -4.4824 H   0  0  0  0  0  0  0  0  0  0  0  0
  -37.9519  161.9792   -6.7789 H   0  0  0  0  0  0  0  0  0  0  0  0
  -37.5231  162.0978   -9.2824 H   0  0  0  0  0  0  0  0  0  0  0  0
  -36.9230  162.9148  -11.4454 H   0  0  0  0  0  0  0  0  0  0  0  0
  -38.2572  163.7510  -12.3100 H   0  0  0  0  0  0  0  0  0  0  0  0
  -36.6055  164.4570  -12.3100 H   0  0  0  0  0  0  0  0  0  0  0  0
  -37.7193  167.9467  -11.2399 H   0  0  0  0  0  0  0  0  0  0  0  0
  -36.9171  166.6643  -12.2088 H   0  0  0  0  0  0  0  0  0  0  0  0
  -38.7081  166.8021  -12.2088 H   0  0  0  0  0  0  0  0  0  0  0  0
  -38.6095  166.3031   -6.4429 H   0  0  0  0  0  0  0  0  0  0  0  0
  -38.3035  160.0621    0.4942 H   0  0  0  0  0  0  0  0  0  0  0  0
  -37.7690  158.3660    0.4860 H   0  0  0  0  0  0  0  0  0  0  0  0
  -37.2880  156.9830    1.3500 H   0  0  0  0  0  0  0  0  0  0  0  0
  1  2  1  0
  2  3  1  0
  3  4  2  0
  4  5  1  0
  5  6  1  0
  6  7  1  0
  7  8  2  0
  8  9  1  0
  9 10  2  0
 10 11  1  0
 11 12  1  0
 12 13  1  0
 12 14  1  0
 14 15  1  0
 15 16  2  0
 16 17  1  0
 17 18  2  0
 18 19  1  0
 18 20  1  0
 20 21  1  0
 20 22  1  0
 22 23  2  0
 23 24  1  0
 11 25  2  0
  5 26  2  0
 26 27  1  0
 27 28  1  0
 28 29  1  0
 28 30  2  0
 28 31  2  0
 27  2  2  0
 25  7  1  0
 24 14  2  0
 23 17  1  0
  1 32  1  0
  1 33  1  0
  1 34  1  0
  3 35  1  0
  4 36  1  0
  6 37  1  0
  9 38  1  0
 10 39  1  0
 13 40  1  0
 13 41  1  0
 13 42  1  0
 15 43  1  0
 16 44  1  0
 19 45  1  0
 19 46  1  0
 19 47  1  0
 21 48  1  0
 21 49  1  0
 21 50  1  0
 24 51  1  0
 26 52  1  0
 29 53  1  0
 29 54  1  0
M  END
>  <meeko>  (5) 
{"is_sidechain": false}

>  <vina_affinity_kcal_mol>  (5) 
-9.729

>  <pose_rank>  (5) 
5

$$$$

     RDKit          3D

 54 57  0  0  0  0  0  0  0  0999 V2000
  -36.6770  164.0230  -11.9610 C   0  0  0  0  0  0  0  0  0  0  0  0
  -37.1360  164.0250  -10.5300 C   0  0  0  0  0  0  0  0  0  0  0  0
  -37.3100  162.7920   -9.8890 C   0  0  0  0  0  0  0  0  0  0  0  0
  -37.7270  162.7260   -8.5550 C   0  0  0  0  0  0  0  0  0  0  0  0
  -37.9700  163.8840   -7.8040 C   0  0  0  0  0  0  0  0  0  0  0  0
  -38.4200  163.7410   -6.4890 N   0  0  0  0  0  0  0  0  0  0  0  0
  -38.6790  162.6460   -5.6680 C   0  0  0  0  0  0  0  0  0  0  0  0
  -38.8430  161.4160   -6.1560 N   0  0  0  0  0  0  0  0  0  0  0  0
  -39.0990  160.4460   -5.2690 C   0  0  0  0  0  0  0  0  0  0  0  0
  -39.1860  160.6590   -3.9130 C   0  0  0  0  0  0  0  0  0  0  0  0
  -38.9980  161.9520   -3.4640 C   0  0  0  0  0  0  0  0  0  0  0  0
  -39.0480  162.2950   -2.0930 N   0  0  0  0  0  0  0  0  0  0  0  0
  -38.9150  163.6990   -1.7060 C   0  0  0  0  0  0  0  0  0  0  0  0
  -39.4120  161.3990   -1.0440 C   0  0  0  0  0  0  0  0  0  0  0  0
  -40.8020  161.2130   -0.7000 C   0  0  0  0  0  0  0  0  0  0  0  0
  -41.2820  160.3570    0.3170 C   0  0  0  0  0  0  0  0  0  0  0  0
  -40.2380  159.7000    0.9560 C   0  0  0  0  0  0  0  0  0  0  0  0
  -40.3570  158.8000    1.9870 C   0  0  0  0  0  0  0  0  0  0  0  0
  -41.5230  158.2580    2.7250 C   0  0  0  0  0  0  0  0  0  0  0  0
  -39.0600  158.4310    2.2570 N   0  0  0  0  0  0  0  0  0  0  0  0
  -38.6180  157.4950    3.2650 C   0  0  0  0  0  0  0  0  0  0  0  0
  -38.1340  159.0370    1.4860 N   0  0  0  0  0  0  0  0  0  0  0  0
  -38.8340  159.8310    0.6600 C   0  0  0  0  0  0  0  0  0  0  0  0
  -38.3880  160.6910   -0.3560 C   0  0  0  0  0  0  0  0  0  0  0  0
  -38.7380  162.9300   -4.3590 N   0  0  0  0  0  0  0  0  0  0  0  0
  -37.7920  165.1140   -8.4400 C   0  0  0  0  0  0  0  0  0  0  0  0
  -37.3770  165.1920   -9.7830 C   0  0  0  0  0  0  0  0  0  0  0  0
  -37.1780  166.8240  -10.4770 S   0  0  0  0  0  0  0  0  0  0  0  0
  -37.3580  167.7900   -9.1070 N   0  0  0  0  0  0  0  0  0  0  0  0
  -38.3050  167.1260  -11.3290 O   0  0  0  0  0  0  0  0  0  0  0  0
  -35.8180  166.9870  -10.9340 O   0  0  0  0  0  0  0  0  0  0  0  0
  -35.5775  164.0182  -11.9934 H   0  0  0  0  0  0  0  0  0  0  0  0
  -37.0627  163.1265  -12.4685 H   0  0  0  0  0  0  0  0  0  0  0  0
  -37.0549  164.9228  -12.4685 H   0  0  0  0  0  0  0  0  0  0  0  0
  -37.1159  161.8615  -10.4426 H   0  0  0  0  0  0  0  0  0  0  0  0
  -37.8674  161.7417   -8.0845 H   0  0  0  0  0  0  0  0  0  0  0  0
  -38.7520  164.5710   -6.0170 H   0  0  0  0  0  0  0  0  0  0  0  0
  -39.2478  159.4232   -5.6454 H   0  0  0  0  0  0  0  0  0  0  0  0
  -39.3964  159.8348   -3.2155 H   0  0  0  0  0  0  0  0  0  0  0  0
  -38.9075  163.7778   -0.6089 H   0  0  0  0  0  0  0  0  0  0  0  0
  -37.9746  164.1029   -2.1090 H   0  0  0  0  0  0  0  0  0  0  0  0
  -39.7629  164.2723   -2.1090 H   0  0  0  0  0  0  0  0  0  0  0  0
  -41.5465  161.7829   -1.2753 H   0  0  0  0  0  0  0  0  0  0  0  0
  -42.3447  160.2277    0.5699 H   0  0  0  0  0  0  0  0  0  0  0  0
  -41.3432  158.3416    3.8070 H   0  0  0  0  0  0  0  0  0  0  0  0
  -42.4240  158.8296    2.4578 H   0  0  0  0  0  0  0  0  0  0  0  0
  -41.6669  157.2007    2.4578 H   0  0  0  0  0  0  0  0  0  0  0  0
  -38.8148  157.9117    4.2638 H   0  0  0  0  0  0  0  0  0  0  0  0
  -39.1635  156.5468    3.1493 H   0  0  0  0  0  0  0  0  0  0  0  0
  -37.5392  157.3138    3.1493 H   0  0  0  0  0  0  0  0  0  0  0  0
  -37.3225  160.8089   -0.6025 H   0  0  0  0  0  0  0  0  0  0  0  0
  -37.9800  166.0419   -7.8799 H   0  0  0  0  0  0  0  0  0  0  0  0
  -36.8360  167.4420   -8.3040 H   0  0  0  0  0  0  0  0  0  0  0  0
  -38.3520  167.9120   -8.9110 H   0  0  0  0  0  0  0  0  0  0  0  0
  1  2  1  0
  2  3  1  0
  3  4  2  0
  4  5  1  0
  5  6  1  0
  6  7  1  0
  7  8  2  0
  8  9  1  0
  9 10  2  0
 10 11  1  0
 11 12  1  0
 12 13  1  0
 12 14  1  0
 14 15  1  0
 15 16  2  0
 16 17  1  0
 17 18  2  0
 18 19  1  0
 18 20  1  0
 20 21  1  0
 20 22  1  0
 22 23  2  0
 23 24  1  0
 11 25  2  0
  5 26  2  0
 26 27  1  0
 27 28  1  0
 28 29  1  0
 28 30  2  0
 28 31  2  0
 27  2  2  0
 25  7  1  0
 24 14  2  0
 23 17  1  0
  1 32  1  0
  1 33  1  0
  1 34  1  0
  3 35  1  0
  4 36  1  0
  6 37  1  0
  9 38  1  0
 10 39  1  0
 13 40  1  0
 13 41  1  0
 13 42  1  0
 15 43  1  0
 16 44  1  0
 19 45  1  0
 19 46  1  0
 19 47  1  0
 21 48  1  0
 21 49  1  0
 21 50  1  0
 24 51  1  0
 26 52  1  0
 29 53  1  0
 29 54  1  0
M  END
>  <meeko>  (6) 
{"is_sidechain": false}

>  <vina_affinity_kcal_mol>  (6) 
-9.54

>  <pose_rank>  (6) 
6

$$$$

     RDKit          3D

 54 57  0  0  0  0  0  0  0  0999 V2000
  -36.0890  154.7670  -11.3860 C   0  0  0  0  0  0  0  0  0  0  0  0
  -36.0340  156.0750  -10.6470 C   0  0  0  0  0  0  0  0  0  0  0  0
  -37.2420  156.6650  -10.2540 C   0  0  0  0  0  0  0  0  0  0  0  0
  -37.2590  157.8770   -9.5560 C   0  0  0  0  0  0  0  0  0  0  0  0
  -36.0750  158.5390   -9.2080 C   0  0  0  0  0  0  0  0  0  0  0  0
  -36.1700  159.7650   -8.5440 N   0  0  0  0  0  0  0  0  0  0  0  0
  -36.8570  160.9500   -8.7930 C   0  0  0  0  0  0  0  0  0  0  0  0
  -37.1720  161.3420  -10.0280 N   0  0  0  0  0  0  0  0  0  0  0  0
  -37.8240  162.5060  -10.1420 C   0  0  0  0  0  0  0  0  0  0  0  0
  -38.1800  163.2870   -9.0680 C   0  0  0  0  0  0  0  0  0  0  0  0
  -37.8350  162.8260   -7.8110 C   0  0  0  0  0  0  0  0  0  0  0  0
  -38.1590  163.5300   -6.6290 N   0  0  0  0  0  0  0  0  0  0  0  0
  -38.4140  164.9680   -6.7040 C   0  0  0  0  0  0  0  0  0  0  0  0
  -38.4510  162.9190   -5.3720 C   0  0  0  0  0  0  0  0  0  0  0  0
  -38.6410  163.7350   -4.1960 C   0  0  0  0  0  0  0  0  0  0  0  0
  -38.9320  163.2450   -2.9030 C   0  0  0  0  0  0  0  0  0  0  0  0
  -39.0200  161.8590   -2.8990 C   0  0  0  0  0  0  0  0  0  0  0  0
  -39.2890  161.0670   -1.8080 C   0  0  0  0  0  0  0  0  0  0  0  0
  -39.5530  161.3700   -0.3810 C   0  0  0  0  0  0  0  0  0  0  0  0
  -39.2790  159.7890   -2.3160 N   0  0  0  0  0  0  0  0  0  0  0  0
  -39.5080  158.5650   -1.5830 C   0  0  0  0  0  0  0  0  0  0  0  0
  -39.0130  159.7130   -3.6350 N   0  0  0  0  0  0  0  0  0  0  0  0
  -38.8520  160.9850   -4.0320 C   0  0  0  0  0  0  0  0  0  0  0  0
  -38.5610  161.5030   -5.3040 C   0  0  0  0  0  0  0  0  0  0  0  0
  -37.1800  161.6510   -7.6960 N   0  0  0  0  0  0  0  0  0  0  0  0
  -34.8700  157.9500   -9.5940 C   0  0  0  0  0  0  0  0  0  0  0  0
  -34.8410  156.7320  -10.3010 C   0  0  0  0  0  0  0  0  0  0  0  0
  -33.2350  156.0800  -10.7280 S   0  0  0  0  0  0  0  0  0  0  0  0
  -32.2160  157.1720   -9.9460 N   0  0  0  0  0  0  0  0  0  0  0  0
  -33.0030  156.2610  -12.1430 O   0  0  0  0  0  0  0  0  0  0  0  0
  -33.0540  154.7980  -10.0880 O   0  0  0  0  0  0  0  0  0  0  0  0
  -36.1238  153.9386  -10.6631 H   0  0  0  0  0  0  0  0  0  0  0  0
  -36.9891  154.7404  -12.0178 H   0  0  0  0  0  0  0  0  0  0  0  0
  -35.1944  154.6649  -12.0178 H   0  0  0  0  0  0  0  0  0  0  0  0
  -38.1922  156.1674  -10.4981 H   0  0  0  0  0  0  0  0  0  0  0  0
  -38.2252  158.3206   -9.2738 H   0  0  0  0  0  0  0  0  0  0  0  0
  -35.5400  159.9260   -7.7700 H   0  0  0  0  0  0  0  0  0  0  0  0
  -38.0893  162.8566  -11.1503 H   0  0  0  0  0  0  0  0  0  0  0  0
  -38.7163  164.2379   -9.2030 H   0  0  0  0  0  0  0  0  0  0  0  0
  -38.4872  165.3809   -5.6871 H   0  0  0  0  0  0  0  0  0  0  0  0
  -37.5889  165.4592   -7.2407 H   0  0  0  0  0  0  0  0  0  0  0  0
  -39.3576  165.1456   -7.2407 H   0  0  0  0  0  0  0  0  0  0  0  0
  -38.5521  164.8248   -4.3162 H   0  0  0  0  0  0  0  0  0  0  0  0
  -39.0708  163.8790   -2.0149 H   0  0  0  0  0  0  0  0  0  0  0  0
  -38.9625  160.6923    0.2531 H   0  0  0  0  0  0  0  0  0  0  0  0
  -39.2690  162.4113   -0.1686 H   0  0  0  0  0  0  0  0  0  0  0  0
  -40.6233  161.2312   -0.1686 H   0  0  0  0  0  0  0  0  0  0  0  0
  -39.4694  158.7715   -0.5033 H   0  0  0  0  0  0  0  0  0  0  0  0
  -40.4973  158.1610   -1.8439 H   0  0  0  0  0  0  0  0  0  0  0  0
  -38.7317  157.8307   -1.8439 H   0  0  0  0  0  0  0  0  0  0  0  0
  -38.4275  160.8590   -6.1857 H   0  0  0  0  0  0  0  0  0  0  0  0
  -33.9223  158.4477   -9.3406 H   0  0  0  0  0  0  0  0  0  0  0  0
  -32.6810  158.0470   -9.7060 H   0  0  0  0  0  0  0  0  0  0  0  0
  -31.3760  157.3100  -10.5080 H   0  0  0  0  0  0  0  0  0  0  0  0
  1  2  1  0
  2  3  1  0
  3  4  2  0
  4  5  1  0
  5  6  1  0
  6  7  1  0
  7  8  2  0
  8  9  1  0
  9 10  2  0
 10 11  1  0
 11 12  1  0
 12 13  1  0
 12 14  1  0
 14 15  1  0
 15 16  2  0
 16 17  1  0
 17 18  2  0
 18 19  1  0
 18 20  1  0
 20 21  1  0
 20 22  1  0
 22 23  2  0
 23 24  1  0
 11 25  2  0
  5 26  2  0
 26 27  1  0
 27 28  1  0
 28 29  1  0
 28 30  2  0
 28 31  2  0
 27  2  2  0
 25  7  1  0
 24 14  2  0
 23 17  1  0
  1 32  1  0
  1 33  1  0
  1 34  1  0
  3 35  1  0
  4 36  1  0
  6 37  1  0
  9 38  1  0
 10 39  1  0
 13 40  1  0
 13 41  1  0
 13 42  1  0
 15 43  1  0
 16 44  1  0
 19 45  1  0
 19 46  1  0
 19 47  1  0
 21 48  1  0
 21 49  1  0
 21 50  1  0
 24 51  1  0
 26 52  1  0
 29 53  1  0
 29 54  1  0
M  END
>  <meeko>  (7) 
{"is_sidechain": false}

>  <vina_affinity_kcal_mol>  (7) 
-9.518

>  <pose_rank>  (7) 
7

$$$$

     RDKit          3D

 54 57  0  0  0  0  0  0  0  0999 V2000
  -37.5610  165.2320  -11.9830 C   0  0  0  0  0  0  0  0  0  0  0  0
  -37.6530  164.8310  -10.5370 C   0  0  0  0  0  0  0  0  0  0  0  0
  -38.1000  165.7850   -9.6130 C   0  0  0  0  0  0  0  0  0  0  0  0
  -38.2170  165.4720   -8.2540 C   0  0  0  0  0  0  0  0  0  0  0  0
  -37.9080  164.1950   -7.7670 C   0  0  0  0  0  0  0  0  0  0  0  0
  -38.0120  163.9670   -6.3920 N   0  0  0  0  0  0  0  0  0  0  0  0
  -38.3940  162.8740   -5.6190 C   0  0  0  0  0  0  0  0  0  0  0  0
  -38.6300  161.6740   -6.1520 N   0  0  0  0  0  0  0  0  0  0  0  0
  -39.0030  160.7040   -5.3070 C   0  0  0  0  0  0  0  0  0  0  0  0
  -39.1390  160.8860   -3.9520 C   0  0  0  0  0  0  0  0  0  0  0  0
  -38.8740  162.1480   -3.4540 C   0  0  0  0  0  0  0  0  0  0  0  0
  -38.9640  162.4560   -2.0770 N   0  0  0  0  0  0  0  0  0  0  0  0
  -38.8280  163.8470   -1.6500 C   0  0  0  0  0  0  0  0  0  0  0  0
  -39.3720  161.5380   -1.0630 C   0  0  0  0  0  0  0  0  0  0  0  0
  -40.7750  161.3640   -0.7660 C   0  0  0  0  0  0  0  0  0  0  0  0
  -41.2970  160.4890    0.2140 C   0  0  0  0  0  0  0  0  0  0  0  0
  -40.2820  159.7990    0.8640 C   0  0  0  0  0  0  0  0  0  0  0  0
  -40.4450  158.8740    1.8670 C   0  0  0  0  0  0  0  0  0  0  0  0
  -41.6410  158.3300    2.5550 C   0  0  0  0  0  0  0  0  0  0  0  0
  -39.1620  158.4770    2.1630 N   0  0  0  0  0  0  0  0  0  0  0  0
  -38.7640  157.5080    3.1580 C   0  0  0  0  0  0  0  0  0  0  0  0
  -38.2050  159.0890    1.4370 N   0  0  0  0  0  0  0  0  0  0  0  0
  -38.8690  159.9150    0.6130 C   0  0  0  0  0  0  0  0  0  0  0  0
  -38.3800  160.7960   -0.3660 C   0  0  0  0  0  0  0  0  0  0  0  0
  -38.4950  163.1260   -4.3050 N   0  0  0  0  0  0  0  0  0  0  0  0
  -37.4670  163.2430   -8.6870 C   0  0  0  0  0  0  0  0  0  0  0  0
  -37.3420  163.5480  -10.0560 C   0  0  0  0  0  0  0  0  0  0  0  0
  -36.7760  162.2400  -11.1300 S   0  0  0  0  0  0  0  0  0  0  0  0
  -36.4720  161.0080  -10.0190 N   0  0  0  0  0  0  0  0  0  0  0  0
  -35.4940  162.5980  -11.6900 O   0  0  0  0  0  0  0  0  0  0  0  0
  -37.8700  161.7980  -11.9630 O   0  0  0  0  0  0  0  0  0  0  0  0
  -37.3155  166.3020  -12.0519 H   0  0  0  0  0  0  0  0  0  0  0  0
  -36.7747  164.6428  -12.4776 H   0  0  0  0  0  0  0  0  0  0  0  0
  -38.5255  165.0445  -12.4776 H   0  0  0  0  0  0  0  0  0  0  0  0
  -38.3628  166.7949   -9.9610 H   0  0  0  0  0  0  0  0  0  0  0  0
  -38.5595  166.2464   -7.5519 H   0  0  0  0  0  0  0  0  0  0  0  0
  -37.9060  164.7630   -5.7780 H   0  0  0  0  0  0  0  0  0  0  0  0
  -39.2120  159.7065   -5.7208 H   0  0  0  0  0  0  0  0  0  0  0  0
  -39.4459  160.0620   -3.2911 H   0  0  0  0  0  0  0  0  0  0  0  0
  -38.8234  163.8944   -0.5510 H   0  0  0  0  0  0  0  0  0  0  0  0
  -37.8853  164.2594   -2.0388 H   0  0  0  0  0  0  0  0  0  0  0  0
  -39.6730  164.4342   -2.0388 H   0  0  0  0  0  0  0  0  0  0  0  0
  -41.4938  161.9593   -1.3483 H   0  0  0  0  0  0  0  0  0  0  0  0
  -42.3683  160.3701    0.4333 H   0  0  0  0  0  0  0  0  0  0  0  0
  -41.4988  158.3947    3.6438 H   0  0  0  0  0  0  0  0  0  0  0  0
  -42.5275  158.9135    2.2657 H   0  0  0  0  0  0  0  0  0  0  0  0
  -41.7838  157.2784    2.2657 H   0  0  0  0  0  0  0  0  0  0  0  0
  -38.9344  157.9227    4.1625 H   0  0  0  0  0  0  0  0  0  0  0  0
  -39.3581  156.5905    3.0345 H   0  0  0  0  0  0  0  0  0  0  0  0
  -37.6965  157.2730    3.0345 H   0  0  0  0  0  0  0  0  0  0  0  0
  -37.3060  160.9039   -0.5780 H   0  0  0  0  0  0  0  0  0  0  0  0
  -37.2115  162.2326   -8.3352 H   0  0  0  0  0  0  0  0  0  0  0  0
  -36.6620  160.0800  -10.3940 H   0  0  0  0  0  0  0  0  0  0  0  0
  -36.9820  161.2010   -9.1570 H   0  0  0  0  0  0  0  0  0  0  0  0
  1  2  1  0
  2  3  1  0
  3  4  2  0
  4  5  1  0
  5  6  1  0
  6  7  1  0
  7  8  2  0
  8  9  1  0
  9 10  2  0
 10 11  1  0
 11 12  1  0
 12 13  1  0
 12 14  1  0
 14 15  1  0
 15 16  2  0
 16 17  1  0
 17 18  2  0
 18 19  1  0
 18 20  1  0
 20 21  1  0
 20 22  1  0
 22 23  2  0
 23 24  1  0
 11 25  2  0
  5 26  2  0
 26 27  1  0
 27 28  1  0
 28 29  1  0
 28 30  2  0
 28 31  2  0
 27  2  2  0
 25  7  1  0
 24 14  2  0
 23 17  1  0
  1 32  1  0
  1 33  1  0
  1 34  1  0
  3 35  1  0
  4 36  1  0
  6 37  1  0
  9 38  1  0
 10 39  1  0
 13 40  1  0
 13 41  1  0
 13 42  1  0
 15 43  1  0
 16 44  1  0
 19 45  1  0
 19 46  1  0
 19 47  1  0
 21 48  1  0
 21 49  1  0
 21 50  1  0
 24 51  1  0
 26 52  1  0
 29 53  1  0
 29 54  1  0
M  END
>  <meeko>  (8) 
{"is_sidechain": false}

>  <vina_affinity_kcal_mol>  (8) 
-9.505

>  <pose_rank>  (8) 
8

$$$$

     RDKit          3D

 54 57  0  0  0  0  0  0  0  0999 V2000
  -37.0650  158.1740  -12.1430 C   0  0  0  0  0  0  0  0  0  0  0  0
  -36.8630  159.1140  -10.9880 C   0  0  0  0  0  0  0  0  0  0  0  0
  -37.3520  160.4210  -11.1040 C   0  0  0  0  0  0  0  0  0  0  0  0
  -37.2040  161.3410  -10.0600 C   0  0  0  0  0  0  0  0  0  0  0  0
  -36.5780  160.9910   -8.8570 C   0  0  0  0  0  0  0  0  0  0  0  0
  -36.4320  161.9730   -7.8740 N   0  0  0  0  0  0  0  0  0  0  0  0
  -37.1970  163.0670   -7.4770 C   0  0  0  0  0  0  0  0  0  0  0  0
  -37.4800  164.0730   -8.3060 N   0  0  0  0  0  0  0  0  0  0  0  0
  -38.2150  165.0750   -7.8050 C   0  0  0  0  0  0  0  0  0  0  0  0
  -38.6830  165.1040   -6.5130 C   0  0  0  0  0  0  0  0  0  0  0  0
  -38.3660  164.0300   -5.7030 C   0  0  0  0  0  0  0  0  0  0  0  0
  -38.8020  163.9360   -4.3610 N   0  0  0  0  0  0  0  0  0  0  0  0
  -39.3880  165.1120   -3.7200 C   0  0  0  0  0  0  0  0  0  0  0  0
  -38.8960  162.7200   -3.6200 C   0  0  0  0  0  0  0  0  0  0  0  0
  -38.8240  161.4490   -4.3020 C   0  0  0  0  0  0  0  0  0  0  0  0
  -38.9070  160.1840   -3.6770 C   0  0  0  0  0  0  0  0  0  0  0  0
  -39.0630  160.3110   -2.3030 C   0  0  0  0  0  0  0  0  0  0  0  0
  -39.1760  159.2800   -1.4010 C   0  0  0  0  0  0  0  0  0  0  0  0
  -39.1760  157.8050   -1.5490 C   0  0  0  0  0  0  0  0  0  0  0  0
  -39.2990  159.9140   -0.1870 N   0  0  0  0  0  0  0  0  0  0  0  0
  -39.4480  159.2860    1.1060 C   0  0  0  0  0  0  0  0  0  0  0  0
  -39.2840  161.2600   -0.2540 N   0  0  0  0  0  0  0  0  0  0  0  0
  -39.1340  161.5420   -1.5580 C   0  0  0  0  0  0  0  0  0  0  0  0
  -39.0510  162.7840   -2.2080 C   0  0  0  0  0  0  0  0  0  0  0  0
  -37.6270  163.0190   -6.2080 N   0  0  0  0  0  0  0  0  0  0  0  0
  -36.0940  159.6870   -8.7380 C   0  0  0  0  0  0  0  0  0  0  0  0
  -36.2340  158.7540   -9.7830 C   0  0  0  0  0  0  0  0  0  0  0  0
  -35.5800  157.1170   -9.5020 S   0  0  0  0  0  0  0  0  0  0  0  0
  -34.6290  157.3720   -8.1330 N   0  0  0  0  0  0  0  0  0  0  0  0
  -34.6650  156.7760  -10.5660 O   0  0  0  0  0  0  0  0  0  0  0  0
  -36.6540  156.2330   -9.1130 O   0  0  0  0  0  0  0  0  0  0  0  0
  -37.2817  157.1654  -11.7613 H   0  0  0  0  0  0  0  0  0  0  0  0
  -37.9087  158.5230  -12.7566 H   0  0  0  0  0  0  0  0  0  0  0  0
  -36.1525  158.1456  -12.7566 H   0  0  0  0  0  0  0  0  0  0  0  0
  -37.8601  160.7292  -12.0297 H   0  0  0  0  0  0  0  0  0  0  0  0
  -37.5886  162.3637  -10.1872 H   0  0  0  0  0  0  0  0  0  0  0  0
  -35.5470  162.0180   -7.3870 H   0  0  0  0  0  0  0  0  0  0  0  0
  -38.4573  165.9215   -8.4644 H   0  0  0  0  0  0  0  0  0  0  0  0
  -39.2842  165.9461   -6.1396 H   0  0  0  0  0  0  0  0  0  0  0  0
  -39.3322  165.0000   -2.6271 H   0  0  0  0  0  0  0  0  0  0  0  0
  -38.8325  166.0110   -4.0253 H   0  0  0  0  0  0  0  0  0  0  0  0
  -40.4402  165.2099   -4.0253 H   0  0  0  0  0  0  0  0  0  0  0  0
  -38.6943  161.4668   -5.3942 H   0  0  0  0  0  0  0  0  0  0  0  0
  -38.8548  159.2232   -4.2100 H   0  0  0  0  0  0  0  0  0  0  0  0
  -38.1389  157.4402   -1.5856 H   0  0  0  0  0  0  0  0  0  0  0  0
  -39.6945  157.3505   -0.6919 H   0  0  0  0  0  0  0  0  0  0  0  0
  -39.6945  157.5298   -2.4793 H   0  0  0  0  0  0  0  0  0  0  0  0
  -39.2716  160.0295    1.8973 H   0  0  0  0  0  0  0  0  0  0  0  0
  -40.4668  158.8826    1.2025 H   0  0  0  0  0  0  0  0  0  0  0  0
  -38.7190  158.4679    1.2025 H   0  0  0  0  0  0  0  0  0  0  0  0
  -39.1022  163.7385   -1.6636 H   0  0  0  0  0  0  0  0  0  0  0  0
  -35.5925  159.3819   -7.8077 H   0  0  0  0  0  0  0  0  0  0  0  0
  -33.6850  157.6810   -8.3580 H   0  0  0  0  0  0  0  0  0  0  0  0
  -34.6440  156.5330   -7.5530 H   0  0  0  0  0  0  0  0  0  0  0  0
  1  2  1  0
  2  3  1  0
  3  4  2  0
  4  5  1  0
  5  6  1  0
  6  7  1  0
  7  8  2  0
  8  9  1  0
  9 10  2  0
 10 11  1  0
 11 12  1  0
 12 13  1  0
 12 14  1  0
 14 15  1  0
 15 16  2  0
 16 17  1  0
 17 18  2  0
 18 19  1  0
 18 20  1  0
 20 21  1  0
 20 22  1  0
 22 23  2  0
 23 24  1  0
 11 25  2  0
  5 26  2  0
 26 27  1  0
 27 28  1  0
 28 29  1  0
 28 30  2  0
 28 31  2  0
 27  2  2  0
 25  7  1  0
 24 14  2  0
 23 17  1  0
  1 32  1  0
  1 33  1  0
  1 34  1  0
  3 35  1  0
  4 36  1  0
  6 37  1  0
  9 38  1  0
 10 39  1  0
 13 40  1  0
 13 41  1  0
 13 42  1  0
 15 43  1  0
 16 44  1  0
 19 45  1  0
 19 46  1  0
 19 47  1  0
 21 48  1  0
 21 49  1  0
 21 50  1  0
 24 51  1  0
 26 52  1  0
 29 53  1  0
 29 54  1  0
M  END
>  <meeko>  (9) 
{"is_sidechain": false}

>  <vina_affinity_kcal_mol>  (9) 
-9.389

>  <pose_rank>  (9) 
9

$$$$

     RDKit          3D

 54 57  0  0  0  0  0  0  0  0999 V2000
  -34.2740  145.8240   -1.8450 C   0  0  0  0  0  0  0  0  0  0  0  0
  -34.3680  146.6690   -0.6050 C   0  0  0  0  0  0  0  0  0  0  0  0
  -33.6850  146.2410    0.5410 C   0  0  0  0  0  0  0  0  0  0  0  0
  -33.7260  146.9860    1.7240 C   0  0  0  0  0  0  0  0  0  0  0  0
  -34.4330  148.1930    1.8080 C   0  0  0  0  0  0  0  0  0  0  0  0
  -34.4600  148.8630    3.0330 N   0  0  0  0  0  0  0  0  0  0  0  0
  -35.4170  149.0150    4.0320 C   0  0  0  0  0  0  0  0  0  0  0  0
  -36.5760  148.3550    4.0120 N   0  0  0  0  0  0  0  0  0  0  0  0
  -37.4210  148.5920    5.0230 C   0  0  0  0  0  0  0  0  0  0  0  0
  -37.1470  149.4560    6.0570 C   0  0  0  0  0  0  0  0  0  0  0  0
  -35.9280  150.1060    6.0300 C   0  0  0  0  0  0  0  0  0  0  0  0
  -35.5250  151.0060    7.0430 N   0  0  0  0  0  0  0  0  0  0  0  0
  -35.1870  150.4830    8.3660 C   0  0  0  0  0  0  0  0  0  0  0  0
  -35.2290  152.3870    6.8330 C   0  0  0  0  0  0  0  0  0  0  0  0
  -33.9010  152.7910    6.4360 C   0  0  0  0  0  0  0  0  0  0  0  0
  -33.4910  154.1230    6.2020 C   0  0  0  0  0  0  0  0  0  0  0  0
  -34.5390  155.0140    6.3970 C   0  0  0  0  0  0  0  0  0  0  0  0
  -34.4800  156.3790    6.2540 C   0  0  0  0  0  0  0  0  0  0  0  0
  -33.3880  157.3090    5.8790 C   0  0  0  0  0  0  0  0  0  0  0  0
  -35.7580  156.7980    6.5430 N   0  0  0  0  0  0  0  0  0  0  0  0
  -36.2430  158.1590    6.5390 C   0  0  0  0  0  0  0  0  0  0  0  0
  -36.6120  155.8070    6.8690 N   0  0  0  0  0  0  0  0  0  0  0  0
  -35.8860  154.6810    6.7840 C   0  0  0  0  0  0  0  0  0  0  0  0
  -36.2620  153.3470    7.0110 C   0  0  0  0  0  0  0  0  0  0  0  0
  -35.0750  149.8650    5.0120 N   0  0  0  0  0  0  0  0  0  0  0  0
  -35.1090  148.6230    0.6650 C   0  0  0  0  0  0  0  0  0  0  0  0
  -35.0790  147.8790   -0.5300 C   0  0  0  0  0  0  0  0  0  0  0  0
  -35.9780  148.5430   -1.9220 S   0  0  0  0  0  0  0  0  0  0  0  0
  -35.7810  150.2000   -1.6830 N   0  0  0  0  0  0  0  0  0  0  0  0
  -37.3880  148.2800   -1.7530 O   0  0  0  0  0  0  0  0  0  0  0  0
  -35.2850  148.2060   -3.1440 O   0  0  0  0  0  0  0  0  0  0  0  0
  -34.1565  144.7678   -1.5609 H   0  0  0  0  0  0  0  0  0  0  0  0
  -35.1910  145.9437   -2.4406 H   0  0  0  0  0  0  0  0  0  0  0  0
  -33.4057  146.1423   -2.4406 H   0  0  0  0  0  0  0  0  0  0  0  0
  -33.1079  145.3051    0.5099 H   0  0  0  0  0  0  0  0  0  0  0  0
  -33.1901  146.6154    2.6103 H   0  0  0  0  0  0  0  0  0  0  0  0
  -33.6880  149.4810    3.2440 H   0  0  0  0  0  0  0  0  0  0  0  0
  -38.3875  148.0667    5.0267 H   0  0  0  0  0  0  0  0  0  0  0  0
  -37.8677  149.6226    6.8711 H   0  0  0  0  0  0  0  0  0  0  0  0
  -35.6116  151.1399    9.1394 H   0  0  0  0  0  0  0  0  0  0  0  0
  -35.6019  149.4703    8.4769 H   0  0  0  0  0  0  0  0  0  0  0  0
  -34.0933  150.4453    8.4769 H   0  0  0  0  0  0  0  0  0  0  0  0
  -33.1487  151.9992    6.3053 H   0  0  0  0  0  0  0  0  0  0  0  0
  -32.4736  154.4164    5.9040 H   0  0  0  0  0  0  0  0  0  0  0  0
  -32.9182  157.7091    6.7896 H   0  0  0  0  0  0  0  0  0  0  0  0
  -32.6354  156.7702    5.2846 H   0  0  0  0  0  0  0  0  0  0  0  0
  -33.8001  158.1377    5.2846 H   0  0  0  0  0  0  0  0  0  0  0  0
  -36.3670  158.5071    7.5751 H   0  0  0  0  0  0  0  0  0  0  0  0
  -35.5196  158.8045    6.0194 H   0  0  0  0  0  0  0  0  0  0  0  0
  -37.2116  158.2015    6.0194 H   0  0  0  0  0  0  0  0  0  0  0  0
  -37.2836  153.0651    7.3057 H   0  0  0  0  0  0  0  0  0  0  0  0
  -35.6778  149.5640    0.6986 H   0  0  0  0  0  0  0  0  0  0  0  0
  -36.3570  150.7630   -2.3070 H   0  0  0  0  0  0  0  0  0  0  0  0
  -34.7890  150.4320   -1.7400 H   0  0  0  0  0  0  0  0  0  0  0  0
  1  2  1  0
  2  3  1  0
  3  4  2  0
  4  5  1  0
  5  6  1  0
  6  7  1  0
  7  8  2  0
  8  9  1  0
  9 10  2  0
 10 11  1  0
 11 12  1  0
 12 13  1  0
 12 14  1  0
 14 15  1  0
 15 16  2  0
 16 17  1  0
 17 18  2  0
 18 19  1  0
 18 20  1  0
 20 21  1  0
 20 22  1  0
 22 23  2  0
 23 24  1  0
 11 25  2  0
  5 26  2  0
 26 27  1  0
 27 28  1  0
 28 29  1  0
 28 30  2  0
 28 31  2  0
 27  2  2  0
 25  7  1  0
 24 14  2  0
 23 17  1  0
  1 32  1  0
  1 33  1  0
  1 34  1  0
  3 35  1  0
  4 36  1  0
  6 37  1  0
  9 38  1  0
 10 39  1  0
 13 40  1  0
 13 41  1  0
 13 42  1  0
 15 43  1  0
 16 44  1  0
 19 45  1  0
 19 46  1  0
 19 47  1  0
 21 48  1  0
 21 49  1  0
 21 50  1  0
 24 51  1  0
 26 52  1  0
 29 53  1  0
 29 54  1  0
M  END
>  <meeko>  (10) 
{"is_sidechain": false}

>  <vina_affinity_kcal_mol>  (10) 
-9.104

>  <pose_rank>  (10) 
10

$$$$
