
     RDKit          3D

 68 72  0  0  0  0  0  0  0  0999 V2000
   -4.7060   -4.5061   -3.3953 C   0  0  0  0  0  0  0  0  0  0  0  0
   -3.6669   -3.5935   -2.7979 C   0  0  0  0  0  0  0  0  0  0  0  0
   -2.4854   -3.3639   -3.5183 C   0  0  0  0  0  0  0  0  0  0  0  0
   -1.5025   -2.5124   -3.0180 C   0  0  0  0  0  0  0  0  0  0  0  0
   -1.6738   -1.8824   -1.7844 C   0  0  0  0  0  0  0  0  0  0  0  0
   -2.8562   -2.1035   -1.0690 C   0  0  0  0  0  0  0  0  0  0  0  0
   -3.8630   -2.9645   -1.5457 C   0  0  0  0  0  0  0  0  0  0  0  0
   -5.0756   -3.1550   -0.8643 N   0  0  0  0  0  0  0  0  0  0  0  0
   -5.7164   -2.4949    0.1795 C   0  0  0  0  0  0  0  0  0  0  0  0
   -6.8116   -3.1150    0.6473 N   0  0  0  0  0  0  0  0  0  0  0  0
   -7.4852   -2.5059    1.6370 C   0  0  0  0  0  0  0  0  0  0  0  0
   -7.1212   -1.2948    2.1688 C   0  0  0  0  0  0  0  0  0  0  0  0
   -5.9951   -0.7097    1.6273 C   0  0  0  0  0  0  0  0  0  0  0  0
   -5.2949   -1.3101    0.6389 N   0  0  0  0  0  0  0  0  0  0  0  0
   -5.4684    0.5871    2.0834 C   0  0  0  0  0  0  0  0  0  0  0  0
   -4.0935    0.8595    2.0911 C   0  0  0  0  0  0  0  0  0  0  0  0
   -3.6095    2.0904    2.5305 C   0  0  0  0  0  0  0  0  0  0  0  0
   -4.5223    3.0360    2.9588 C   0  0  0  0  0  0  0  0  0  0  0  0
   -5.8561    2.8338    2.9705 N   0  0  0  0  0  0  0  0  0  0  0  0
   -6.2893    1.6253    2.5279 C   0  0  0  0  0  0  0  0  0  0  0  0
   -0.6319   -1.0325   -1.3538 N   0  0  0  0  0  0  0  0  0  0  0  0
   -0.4817   -0.4494   -0.1099 C   0  0  0  0  0  0  0  0  0  0  0  0
   -1.1560   -0.6581    0.8905 O   0  0  0  0  0  0  0  0  0  0  0  0
    0.6739    0.4846    0.0043 C   0  0  0  0  0  0  0  0  0  0  0  0
    1.0490    1.3220   -1.0528 C   0  0  0  0  0  0  0  0  0  0  0  0
    2.1363    2.1881   -0.9050 C   0  0  0  0  0  0  0  0  0  0  0  0
    2.8591    2.2342    0.2972 C   0  0  0  0  0  0  0  0  0  0  0  0
    2.4578    1.4086    1.3583 C   0  0  0  0  0  0  0  0  0  0  0  0
    1.3714    0.5424    1.2151 C   0  0  0  0  0  0  0  0  0  0  0  0
    4.0345    3.1783    0.4563 C   0  0  0  0  0  0  0  0  0  0  0  0
    5.3587    2.6311    0.1734 N   0  0  0  0  0  0  0  0  0  0  0  0
    5.6254    2.3341   -1.2398 C   0  0  0  0  0  0  0  0  0  0  0  0
    6.8726    1.4407   -1.4896 C   0  0  0  0  0  0  0  0  0  0  0  0
    7.8851    1.5759   -0.4371 N   0  0  0  0  0  0  0  0  0  0  0  0
    7.3148    1.2288    0.8794 C   0  0  0  0  0  0  0  0  0  0  0  0
    5.8037    1.5525    1.0521 C   0  0  0  0  0  0  0  0  0  0  0  0
    9.0840    0.7993   -0.7236 C   0  0  0  0  0  0  0  0  0  0  0  0
   -5.6592   -3.9789   -3.5049 H   0  0  0  0  0  0  0  0  0  0  0  0
   -4.4115   -4.8572   -4.3901 H   0  0  0  0  0  0  0  0  0  0  0  0
   -4.8440   -5.3881   -2.7617 H   0  0  0  0  0  0  0  0  0  0  0  0
   -2.3259   -3.8436   -4.4815 H   0  0  0  0  0  0  0  0  0  0  0  0
   -0.6015   -2.3584   -3.6050 H   0  0  0  0  0  0  0  0  0  0  0  0
   -3.0040   -1.6063   -0.1175 H   0  0  0  0  0  0  0  0  0  0  0  0
   -5.5936   -3.9937   -1.0750 H   0  0  0  0  0  0  0  0  0  0  0  0
   -8.3563   -3.0411    2.0035 H   0  0  0  0  0  0  0  0  0  0  0  0
   -7.6864   -0.8512    2.9766 H   0  0  0  0  0  0  0  0  0  0  0  0
   -3.3861    0.1034    1.7550 H   0  0  0  0  0  0  0  0  0  0  0  0
   -2.5448    2.2951    2.5343 H   0  0  0  0  0  0  0  0  0  0  0  0
   -4.1958    4.0097    3.3118 H   0  0  0  0  0  0  0  0  0  0  0  0
   -7.3717    1.5271    2.5334 H   0  0  0  0  0  0  0  0  0  0  0  0
    0.1330   -0.9148   -2.0047 H   0  0  0  0  0  0  0  0  0  0  0  0
    0.4874    1.3366   -1.9832 H   0  0  0  0  0  0  0  0  0  0  0  0
    2.4127    2.8401   -1.7316 H   0  0  0  0  0  0  0  0  0  0  0  0
    2.9879    1.4402    2.3081 H   0  0  0  0  0  0  0  0  0  0  0  0
    1.0698   -0.0882    2.0495 H   0  0  0  0  0  0  0  0  0  0  0  0
    3.8687    4.0629   -0.1735 H   0  0  0  0  0  0  0  0  0  0  0  0
    4.0236    3.5765    1.4800 H   0  0  0  0  0  0  0  0  0  0  0  0
    4.7767    1.8329   -1.7171 H   0  0  0  0  0  0  0  0  0  0  0  0
    5.7716    3.2890   -1.7592 H   0  0  0  0  0  0  0  0  0  0  0  0
    6.5493    0.3929   -1.5593 H   0  0  0  0  0  0  0  0  0  0  0  0
    7.2976    1.7125   -2.4635 H   0  0  0  0  0  0  0  0  0  0  0  0
    7.8804    1.7835    1.6381 H   0  0  0  0  0  0  0  0  0  0  0  0
    7.4473    0.1606    1.0963 H   0  0  0  0  0  0  0  0  0  0  0  0
    5.2309    0.6396    0.8440 H   0  0  0  0  0  0  0  0  0  0  0  0
    5.6316    1.8145    2.1030 H   0  0  0  0  0  0  0  0  0  0  0  0
    9.8353    0.9487    0.0597 H   0  0  0  0  0  0  0  0  0  0  0  0
    8.8740   -0.2736   -0.8007 H   0  0  0  0  0  0  0  0  0  0  0  0
    9.5393    1.1279   -1.6642 H   0  0  0  0  0  0  0  0  0  0  0  0
  1  2  1  0
  2  3  1  0
  3  4  2  0
  4  5  1  0
  5  6  2  0
  6  7  1  0
  7  8  1  0
  8  9  1  0
  9 10  2  0
 10 11  1  0
 11 12  2  0
 12 13  1  0
 13 14  2  0
 13 15  1  0
 15 16  1  0
 16 17  2  0
 17 18  1  0
 18 19  2  0
 19 20  1  0
  5 21  1  0
 21 22  1  0
 22 23  2  0
 22 24  1  0
 24 25  1  0
 25 26  2  0
 26 27  1  0
 27 28  2  0
 28 29  1  0
 27 30  1  0
 30 31  1  0
 31 32  1  0
 32 33  1  0
 33 34  1  0
 34 35  1  0
 35 36  1  0
 34 37  1  0
  7  2  2  0
 14  9  1  0
 20 15  2  0
 29 24  2  0
 36 31  1  0
  1 38  1  0
  1 39  1  0
  1 40  1  0
  3 41  1  0
  4 42  1  0
  6 43  1  0
  8 44  1  0
 11 45  1  0
 12 46  1  0
 16 47  1  0
 17 48  1  0
 18 49  1  0
 20 50  1  0
 21 51  1  0
 25 52  1  0
 26 53  1  0
 28 54  1  0
 29 55  1  0
 30 56  1  0
 30 57  1  0
 32 58  1  0
 32 59  1  0
 33 60  1  0
 33 61  1  0
 35 62  1  0
 35 63  1  0
 36 64  1  0
 36 65  1  0
 37 66  1  0
 37 67  1  0
 37 68  1  0
M  END
$$$$
