
     RDKit          3D

 68 72  0  0  0  0  0  0  0  0999 V2000
  -42.7270  160.7440    0.1760 C   0  0  0  0  0  0  0  0  0  0  0  0
  -41.7100  160.0020    1.0030 C   0  0  0  0  0  0  0  0  0  0  0  0
  -42.1670  159.0870    1.9640 C   0  0  0  0  0  0  0  0  0  0  0  0
  -41.2660  158.3620    2.7390 C   0  0  0  0  0  0  0  0  0  0  0  0
  -39.8910  158.5440    2.5820 C   0  0  0  0  0  0  0  0  0  0  0  0
  -39.0480  157.7660    3.4050 N   0  0  0  0  0  0  0  0  0  0  0  0
  -37.7050  157.4990    3.2210 C   0  0  0  0  0  0  0  0  0  0  0  0
  -36.9620  157.9890    2.3790 O   0  0  0  0  0  0  0  0  0  0  0  0
  -37.1150  156.5550    4.2120 C   0  0  0  0  0  0  0  0  0  0  0  0
  -37.8520  155.4860    4.7360 C   0  0  0  0  0  0  0  0  0  0  0  0
  -37.2620  154.6190    5.6600 C   0  0  0  0  0  0  0  0  0  0  0  0
  -35.9320  154.8030    6.0690 C   0  0  0  0  0  0  0  0  0  0  0  0
  -35.2930  153.8570    7.0680 C   0  0  0  0  0  0  0  0  0  0  0  0
  -35.5220  152.4300    6.8600 N   0  0  0  0  0  0  0  0  0  0  0  0
  -35.5700  151.6190    8.0830 C   0  0  0  0  0  0  0  0  0  0  0  0
  -35.4600  150.0860    7.8470 C   0  0  0  0  0  0  0  0  0  0  0  0
  -35.9560  149.6790    6.5290 N   0  0  0  0  0  0  0  0  0  0  0  0
  -35.9260  148.2330    6.3520 C   0  0  0  0  0  0  0  0  0  0  0  0
  -35.2160  150.3730    5.4580 C   0  0  0  0  0  0  0  0  0  0  0  0
  -34.7150  151.8000    5.8170 C   0  0  0  0  0  0  0  0  0  0  0  0
  -35.1960  155.8620    5.5180 C   0  0  0  0  0  0  0  0  0  0  0  0
  -35.7810  156.7310    4.5930 C   0  0  0  0  0  0  0  0  0  0  0  0
  -39.4330  159.4500    1.6190 C   0  0  0  0  0  0  0  0  0  0  0  0
  -40.3210  160.2020    0.8260 C   0  0  0  0  0  0  0  0  0  0  0  0
  -39.8750  161.0760   -0.1800 N   0  0  0  0  0  0  0  0  0  0  0  0
  -39.5260  160.9180   -1.5170 C   0  0  0  0  0  0  0  0  0  0  0  0
  -39.3990  159.6420   -1.9170 N   0  0  0  0  0  0  0  0  0  0  0  0
  -39.0350  159.4330   -3.1930 C   0  0  0  0  0  0  0  0  0  0  0  0
  -38.7750  160.4440   -4.0830 C   0  0  0  0  0  0  0  0  0  0  0  0
  -38.9100  161.7280   -3.5960 C   0  0  0  0  0  0  0  0  0  0  0  0
  -38.6690  162.9260   -4.4180 C   0  0  0  0  0  0  0  0  0  0  0  0
  -38.3930  162.8330   -5.7890 C   0  0  0  0  0  0  0  0  0  0  0  0
  -38.1620  163.9750   -6.5520 C   0  0  0  0  0  0  0  0  0  0  0  0
  -38.2140  165.2040   -5.9230 C   0  0  0  0  0  0  0  0  0  0  0  0
  -38.4780  165.3580   -4.6080 N   0  0  0  0  0  0  0  0  0  0  0  0
  -38.7050  164.2220   -3.8990 C   0  0  0  0  0  0  0  0  0  0  0  0
  -39.2860  161.9630   -2.3200 N   0  0  0  0  0  0  0  0  0  0  0  0
  -43.4346  161.2602    0.8415 H   0  0  0  0  0  0  0  0  0  0  0  0
  -42.2152  161.4824   -0.4587 H   0  0  0  0  0  0  0  0  0  0  0  0
  -43.2739  160.0313   -0.4587 H   0  0  0  0  0  0  0  0  0  0  0  0
  -43.2480  158.9412    2.1063 H   0  0  0  0  0  0  0  0  0  0  0  0
  -41.6403  157.6406    3.4803 H   0  0  0  0  0  0  0  0  0  0  0  0
  -39.4590  157.4450    4.2720 H   0  0  0  0  0  0  0  0  0  0  0  0
  -38.8941  155.3287    4.4208 H   0  0  0  0  0  0  0  0  0  0  0  0
  -37.8467  153.7830    6.0713 H   0  0  0  0  0  0  0  0  0  0  0  0
  -34.2067  154.0276    7.0406 H   0  0  0  0  0  0  0  0  0  0  0  0
  -35.7707  154.0887    8.0314 H   0  0  0  0  0  0  0  0  0  0  0  0
  -34.7370  151.9270    8.7320 H   0  0  0  0  0  0  0  0  0  0  0  0
  -36.5570  151.7950    8.5356 H   0  0  0  0  0  0  0  0  0  0  0  0
  -34.4034  149.7920    7.9315 H   0  0  0  0  0  0  0  0  0  0  0  0
  -36.0829  149.5879    8.6045 H   0  0  0  0  0  0  0  0  0  0  0  0
  -35.9158  147.7432    7.3369 H   0  0  0  0  0  0  0  0  0  0  0  0
  -36.8177  147.9135    5.7928 H   0  0  0  0  0  0  0  0  0  0  0  0
  -35.0218  147.9507    5.7928 H   0  0  0  0  0  0  0  0  0  0  0  0
  -34.3403  149.7604    5.1975 H   0  0  0  0  0  0  0  0  0  0  0  0
  -35.9269  150.4989    4.6281 H   0  0  0  0  0  0  0  0  0  0  0  0
  -33.6751  151.7307    6.1690 H   0  0  0  0  0  0  0  0  0  0  0  0
  -34.7949  152.4201    4.9120 H   0  0  0  0  0  0  0  0  0  0  0  0
  -34.1478  156.0101    5.8169 H   0  0  0  0  0  0  0  0  0  0  0  0
  -35.1914  157.5546    4.1640 H   0  0  0  0  0  0  0  0  0  0  0  0
  -38.3497  159.5783    1.4776 H   0  0  0  0  0  0  0  0  0  0  0  0
  -39.6550  162.0200    0.0970 H   0  0  0  0  0  0  0  0  0  0  0  0
  -38.9402  158.3946   -3.5433 H   0  0  0  0  0  0  0  0  0  0  0  0
  -38.4768  160.2432   -5.1226 H   0  0  0  0  0  0  0  0  0  0  0  0
  -38.3583  161.8439   -6.2692 H   0  0  0  0  0  0  0  0  0  0  0  0
  -37.9438  163.9004   -7.6276 H   0  0  0  0  0  0  0  0  0  0  0  0
  -38.0304  166.1055   -6.5260 H   0  0  0  0  0  0  0  0  0  0  0  0
  -38.9360  164.3317   -2.8291 H   0  0  0  0  0  0  0  0  0  0  0  0
  1  2  1  0
  2  3  1  0
  3  4  2  0
  4  5  1  0
  5  6  1  0
  6  7  1  0
  7  8  2  0
  7  9  1  0
  9 10  1  0
 10 11  2  0
 11 12  1  0
 12 13  1  0
 13 14  1  0
 14 15  1  0
 15 16  1  0
 16 17  1  0
 17 18  1  0
 17 19  1  0
 19 20  1  0
 12 21  2  0
 21 22  1  0
  5 23  2  0
 23 24  1  0
 24 25  1  0
 25 26  1  0
 26 27  2  0
 27 28  1  0
 28 29  2  0
 29 30  1  0
 30 31  1  0
 31 32  1  0
 32 33  2  0
 33 34  1  0
 34 35  2  0
 35 36  1  0
 30 37  2  0
 24  2  2  0
 37 26  1  0
 22  9  2  0
 36 31  2  0
 20 14  1  0
  1 38  1  0
  1 39  1  0
  1 40  1  0
  3 41  1  0
  4 42  1  0
  6 43  1  0
 10 44  1  0
 11 45  1  0
 13 46  1  0
 13 47  1  0
 15 48  1  0
 15 49  1  0
 16 50  1  0
 16 51  1  0
 18 52  1  0
 18 53  1  0
 18 54  1  0
 19 55  1  0
 19 56  1  0
 20 57  1  0
 20 58  1  0
 21 59  1  0
 22 60  1  0
 23 61  1  0
 25 62  1  0
 28 63  1  0
 29 64  1  0
 32 65  1  0
 33 66  1  0
 34 67  1  0
 36 68  1  0
M  END
>  <meeko>  (1) 
{"is_sidechain": false}

>  <vina_affinity_kcal_mol>  (1) 
-12.407

>  <pose_rank>  (1) 
1

$$$$

     RDKit          3D

 68 72  0  0  0  0  0  0  0  0999 V2000
  -41.5330  157.9260    3.1410 C   0  0  0  0  0  0  0  0  0  0  0  0
  -40.9880  158.6360    1.9300 C   0  0  0  0  0  0  0  0  0  0  0  0
  -41.7620  159.6500    1.3450 C   0  0  0  0  0  0  0  0  0  0  0  0
  -41.2940  160.3500    0.2360 C   0  0  0  0  0  0  0  0  0  0  0  0
  -40.0500  160.0450   -0.3210 C   0  0  0  0  0  0  0  0  0  0  0  0
  -39.6510  160.8050   -1.4410 N   0  0  0  0  0  0  0  0  0  0  0  0
  -39.2060  162.1130   -1.4540 C   0  0  0  0  0  0  0  0  0  0  0  0
  -38.9540  162.8180   -0.4840 O   0  0  0  0  0  0  0  0  0  0  0  0
  -38.9580  162.6730   -2.8130 C   0  0  0  0  0  0  0  0  0  0  0  0
  -38.9620  161.8620   -3.9530 C   0  0  0  0  0  0  0  0  0  0  0  0
  -38.7310  162.4260   -5.2110 C   0  0  0  0  0  0  0  0  0  0  0  0
  -38.4970  163.8030   -5.3480 C   0  0  0  0  0  0  0  0  0  0  0  0
  -38.2510  164.4120   -6.7150 C   0  0  0  0  0  0  0  0  0  0  0  0
  -38.0200  163.4820   -7.8170 N   0  0  0  0  0  0  0  0  0  0  0  0
  -36.8160  162.6510   -7.6930 C   0  0  0  0  0  0  0  0  0  0  0  0
  -36.3890  161.9320   -9.0040 C   0  0  0  0  0  0  0  0  0  0  0  0
  -37.5190  161.6750   -9.9020 N   0  0  0  0  0  0  0  0  0  0  0  0
  -37.1200  160.9280  -11.0880 C   0  0  0  0  0  0  0  0  0  0  0  0
  -38.1970  162.9370  -10.2580 C   0  0  0  0  0  0  0  0  0  0  0  0
  -38.1660  164.0370   -9.1600 C   0  0  0  0  0  0  0  0  0  0  0  0
  -38.5200  164.6100   -4.2010 C   0  0  0  0  0  0  0  0  0  0  0  0
  -38.7520  164.0500   -2.9420 C   0  0  0  0  0  0  0  0  0  0  0  0
  -39.2750  159.0390    0.2670 C   0  0  0  0  0  0  0  0  0  0  0  0
  -39.7250  158.3100    1.3840 C   0  0  0  0  0  0  0  0  0  0  0  0
  -38.9340  157.3350    2.0150 N   0  0  0  0  0  0  0  0  0  0  0  0
  -38.1850  157.3030    3.1870 C   0  0  0  0  0  0  0  0  0  0  0  0
  -37.7540  158.5030    3.6090 N   0  0  0  0  0  0  0  0  0  0  0  0
  -37.0010  158.5260    4.7210 C   0  0  0  0  0  0  0  0  0  0  0  0
  -36.6450  157.4000    5.4200 C   0  0  0  0  0  0  0  0  0  0  0  0
  -37.1100  156.2030    4.9160 C   0  0  0  0  0  0  0  0  0  0  0  0
  -36.8210  154.9030    5.5450 C   0  0  0  0  0  0  0  0  0  0  0  0
  -37.4590  153.7280    5.1280 C   0  0  0  0  0  0  0  0  0  0  0  0
  -37.1790  152.5060    5.7370 C   0  0  0  0  0  0  0  0  0  0  0  0
  -36.2530  152.4840    6.7630 C   0  0  0  0  0  0  0  0  0  0  0  0
  -35.6040  153.5810    7.2050 N   0  0  0  0  0  0  0  0  0  0  0  0
  -35.8990  154.7510    6.5820 C   0  0  0  0  0  0  0  0  0  0  0  0
  -37.8790  156.1570    3.8060 N   0  0  0  0  0  0  0  0  0  0  0  0
  -41.1579  158.4147    4.0523 H   0  0  0  0  0  0  0  0  0  0  0  0
  -42.6321  157.9692    3.1277 H   0  0  0  0  0  0  0  0  0  0  0  0
  -41.2072  156.8754    3.1277 H   0  0  0  0  0  0  0  0  0  0  0  0
  -42.7482  159.8942    1.7667 H   0  0  0  0  0  0  0  0  0  0  0  0
  -41.9084  161.1490   -0.2046 H   0  0  0  0  0  0  0  0  0  0  0  0
  -39.6040  160.3010   -2.3170 H   0  0  0  0  0  0  0  0  0  0  0  0
  -39.1467  160.7817   -3.8595 H   0  0  0  0  0  0  0  0  0  0  0  0
  -38.7326  161.7833   -6.1037 H   0  0  0  0  0  0  0  0  0  0  0  0
  -39.1307  165.0205   -6.9717 H   0  0  0  0  0  0  0  0  0  0  0  0
  -37.3133  164.9781   -6.6140 H   0  0  0  0  0  0  0  0  0  0  0  0
  -35.9858  163.2958   -7.3690 H   0  0  0  0  0  0  0  0  0  0  0  0
  -37.0560  161.8601   -6.9672 H   0  0  0  0  0  0  0  0  0  0  0  0
  -35.6581  162.5639   -9.5299 H   0  0  0  0  0  0  0  0  0  0  0  0
  -35.9587  160.9590   -8.7244 H   0  0  0  0  0  0  0  0  0  0  0  0
  -36.6220  159.9956  -10.7837 H   0  0  0  0  0  0  0  0  0  0  0  0
  -38.0106  160.6891  -11.6877 H   0  0  0  0  0  0  0  0  0  0  0  0
  -36.4262  161.5354  -11.6877 H   0  0  0  0  0  0  0  0  0  0  0  0
  -37.7123  163.3415  -11.1588 H   0  0  0  0  0  0  0  0  0  0  0  0
  -39.2570  162.6830  -10.4061 H   0  0  0  0  0  0  0  0  0  0  0  0
  -37.3183  164.7094   -9.3580 H   0  0  0  0  0  0  0  0  0  0  0  0
  -39.1252  164.5741   -9.1975 H   0  0  0  0  0  0  0  0  0  0  0  0
  -38.3539  165.6935   -4.2934 H   0  0  0  0  0  0  0  0  0  0  0  0
  -38.7726  164.6939   -2.0504 H   0  0  0  0  0  0  0  0  0  0  0  0
  -38.2854  158.8113   -0.1559 H   0  0  0  0  0  0  0  0  0  0  0  0
  -38.7630  156.4830    1.5040 H   0  0  0  0  0  0  0  0  0  0  0  0
  -36.6506  159.5006    5.0916 H   0  0  0  0  0  0  0  0  0  0  0  0
  -36.0259  157.4490    6.3279 H   0  0  0  0  0  0  0  0  0  0  0  0
  -38.1914  153.7702    4.3083 H   0  0  0  0  0  0  0  0  0  0  0  0
  -37.6815  151.5838    5.4099 H   0  0  0  0  0  0  0  0  0  0  0  0
  -36.0334  151.5200    7.2451 H   0  0  0  0  0  0  0  0  0  0  0  0
  -35.3682  155.6524    6.9222 H   0  0  0  0  0  0  0  0  0  0  0  0
  1  2  1  0
  2  3  1  0
  3  4  2  0
  4  5  1  0
  5  6  1  0
  6  7  1  0
  7  8  2  0
  7  9  1  0
  9 10  1  0
 10 11  2  0
 11 12  1  0
 12 13  1  0
 13 14  1  0
 14 15  1  0
 15 16  1  0
 16 17  1  0
 17 18  1  0
 17 19  1  0
 19 20  1  0
 12 21  2  0
 21 22  1  0
  5 23  2  0
 23 24  1  0
 24 25  1  0
 25 26  1  0
 26 27  2  0
 27 28  1  0
 28 29  2  0
 29 30  1  0
 30 31  1  0
 31 32  1  0
 32 33  2  0
 33 34  1  0
 34 35  2  0
 35 36  1  0
 30 37  2  0
 24  2  2  0
 37 26  1  0
 22  9  2  0
 36 31  2  0
 20 14  1  0
  1 38  1  0
  1 39  1  0
  1 40  1  0
  3 41  1  0
  4 42  1  0
  6 43  1  0
 10 44  1  0
 11 45  1  0
 13 46  1  0
 13 47  1  0
 15 48  1  0
 15 49  1  0
 16 50  1  0
 16 51  1  0
 18 52  1  0
 18 53  1  0
 18 54  1  0
 19 55  1  0
 19 56  1  0
 20 57  1  0
 20 58  1  0
 21 59  1  0
 22 60  1  0
 23 61  1  0
 25 62  1  0
 28 63  1  0
 29 64  1  0
 32 65  1  0
 33 66  1  0
 34 67  1  0
 36 68  1  0
M  END
>  <meeko>  (2) 
{"is_sidechain": false}

>  <vina_affinity_kcal_mol>  (2) 
-11.035

>  <pose_rank>  (2) 
2

$$$$

     RDKit          3D

 68 72  0  0  0  0  0  0  0  0999 V2000
  -35.6530  155.8790    7.4450 C   0  0  0  0  0  0  0  0  0  0  0  0
  -36.1980  156.3460    6.1210 C   0  0  0  0  0  0  0  0  0  0  0  0
  -35.6790  157.5230    5.5610 C   0  0  0  0  0  0  0  0  0  0  0  0
  -36.1360  157.9840    4.3290 C   0  0  0  0  0  0  0  0  0  0  0  0
  -37.1300  157.2900    3.6370 C   0  0  0  0  0  0  0  0  0  0  0  0
  -37.5320  157.8250    2.3950 N   0  0  0  0  0  0  0  0  0  0  0  0
  -38.7640  158.3600    2.0690 C   0  0  0  0  0  0  0  0  0  0  0  0
  -39.6970  158.5850    2.8300 O   0  0  0  0  0  0  0  0  0  0  0  0
  -38.9150  158.7500    0.6380 C   0  0  0  0  0  0  0  0  0  0  0  0
  -39.7190  159.8280    0.2510 C   0  0  0  0  0  0  0  0  0  0  0  0
  -39.8310  160.1650   -1.1000 C   0  0  0  0  0  0  0  0  0  0  0  0
  -39.1410  159.4360   -2.0820 C   0  0  0  0  0  0  0  0  0  0  0  0
  -39.2600  159.8070   -3.5470 C   0  0  0  0  0  0  0  0  0  0  0  0
  -38.7060  161.0990   -3.9440 N   0  0  0  0  0  0  0  0  0  0  0  0
  -39.2620  162.2620   -3.2420 C   0  0  0  0  0  0  0  0  0  0  0  0
  -38.9360  163.6320   -3.9000 C   0  0  0  0  0  0  0  0  0  0  0  0
  -37.6840  163.6100   -4.6640 N   0  0  0  0  0  0  0  0  0  0  0  0
  -37.3480  164.9190   -5.2060 C   0  0  0  0  0  0  0  0  0  0  0  0
  -37.7390  162.5820   -5.7210 C   0  0  0  0  0  0  0  0  0  0  0  0
  -38.5970  161.3300   -5.3830 C   0  0  0  0  0  0  0  0  0  0  0  0
  -38.3180  158.3740   -1.6800 C   0  0  0  0  0  0  0  0  0  0  0  0
  -38.2030  158.0330   -0.3290 C   0  0  0  0  0  0  0  0  0  0  0  0
  -37.6430  156.1120    4.1910 C   0  0  0  0  0  0  0  0  0  0  0  0
  -37.2050  155.6250    5.4380 C   0  0  0  0  0  0  0  0  0  0  0  0
  -37.6730  154.4170    5.9800 N   0  0  0  0  0  0  0  0  0  0  0  0
  -37.3640  153.0760    5.7750 C   0  0  0  0  0  0  0  0  0  0  0  0
  -36.0830  152.7530    6.0190 N   0  0  0  0  0  0  0  0  0  0  0  0
  -35.7230  151.4760    5.8090 C   0  0  0  0  0  0  0  0  0  0  0  0
  -36.5830  150.5110    5.3480 C   0  0  0  0  0  0  0  0  0  0  0  0
  -37.8770  150.9210    5.1030 C   0  0  0  0  0  0  0  0  0  0  0  0
  -38.9250  150.0130    4.6080 C   0  0  0  0  0  0  0  0  0  0  0  0
  -40.1320  150.4980    4.0870 C   0  0  0  0  0  0  0  0  0  0  0  0
  -41.1160  149.6260    3.6270 C   0  0  0  0  0  0  0  0  0  0  0  0
  -40.8700  148.2680    3.6980 C   0  0  0  0  0  0  0  0  0  0  0  0
  -39.7280  147.7410    4.1850 N   0  0  0  0  0  0  0  0  0  0  0  0
  -38.7900  148.6230    4.6160 C   0  0  0  0  0  0  0  0  0  0  0  0
  -38.2650  152.1980    5.3190 N   0  0  0  0  0  0  0  0  0  0  0  0
  -36.2127  156.3585    8.2616 H   0  0  0  0  0  0  0  0  0  0  0  0
  -35.7585  154.7867    7.5202 H   0  0  0  0  0  0  0  0  0  0  0  0
  -34.5897  156.1507    7.5202 H   0  0  0  0  0  0  0  0  0  0  0  0
  -34.9037  158.0870    6.1002 H   0  0  0  0  0  0  0  0  0  0  0  0
  -35.7104  158.9021    3.8978 H   0  0  0  0  0  0  0  0  0  0  0  0
  -36.8050  157.9050    1.6970 H   0  0  0  0  0  0  0  0  0  0  0  0
  -40.2625  160.4096    1.0102 H   0  0  0  0  0  0  0  0  0  0  0  0
  -40.4672  161.0114   -1.3981 H   0  0  0  0  0  0  0  0  0  0  0  0
  -38.7445  159.0299   -4.1305 H   0  0  0  0  0  0  0  0  0  0  0  0
  -40.3404  159.8848   -3.7385 H   0  0  0  0  0  0  0  0  0  0  0  0
  -40.3557  162.1503   -3.2060 H   0  0  0  0  0  0  0  0  0  0  0  0
  -38.7966  162.2763   -2.2454 H   0  0  0  0  0  0  0  0  0  0  0  0
  -39.7582  163.9004   -4.5797 H   0  0  0  0  0  0  0  0  0  0  0  0
  -38.8189  164.3690   -3.0918 H   0  0  0  0  0  0  0  0  0  0  0  0
  -37.1674  165.6226   -4.3799 H   0  0  0  0  0  0  0  0  0  0  0  0
  -36.4414  164.8384   -5.8238 H   0  0  0  0  0  0  0  0  0  0  0  0
  -38.1813  165.2850   -5.8238 H   0  0  0  0  0  0  0  0  0  0  0  0
  -38.1570  163.0467   -6.6262 H   0  0  0  0  0  0  0  0  0  0  0  0
  -36.7081  162.2201   -5.8487 H   0  0  0  0  0  0  0  0  0  0  0  0
  -39.6069  161.4726   -5.7950 H   0  0  0  0  0  0  0  0  0  0  0  0
  -38.0999  160.4543   -5.8257 H   0  0  0  0  0  0  0  0  0  0  0  0
  -37.7574  157.8036   -2.4352 H   0  0  0  0  0  0  0  0  0  0  0  0
  -37.5518  157.1998   -0.0262 H   0  0  0  0  0  0  0  0  0  0  0  0
  -38.4098  155.5505    3.6372 H   0  0  0  0  0  0  0  0  0  0  0  0
  -38.4750  154.4680    6.5900 H   0  0  0  0  0  0  0  0  0  0  0  0
  -34.6821  151.1881    6.0179 H   0  0  0  0  0  0  0  0  0  0  0  0
  -36.2597  149.4725    5.1837 H   0  0  0  0  0  0  0  0  0  0  0  0
  -40.3050  151.5833    4.0406 H   0  0  0  0  0  0  0  0  0  0  0  0
  -42.0632  150.0080    3.2183 H   0  0  0  0  0  0  0  0  0  0  0  0
  -41.6482  147.5791    3.3376 H   0  0  0  0  0  0  0  0  0  0  0  0
  -37.8471  148.2091    5.0029 H   0  0  0  0  0  0  0  0  0  0  0  0
  1  2  1  0
  2  3  1  0
  3  4  2  0
  4  5  1  0
  5  6  1  0
  6  7  1  0
  7  8  2  0
  7  9  1  0
  9 10  1  0
 10 11  2  0
 11 12  1  0
 12 13  1  0
 13 14  1  0
 14 15  1  0
 15 16  1  0
 16 17  1  0
 17 18  1  0
 17 19  1  0
 19 20  1  0
 12 21  2  0
 21 22  1  0
  5 23  2  0
 23 24  1  0
 24 25  1  0
 25 26  1  0
 26 27  2  0
 27 28  1  0
 28 29  2  0
 29 30  1  0
 30 31  1  0
 31 32  1  0
 32 33  2  0
 33 34  1  0
 34 35  2  0
 35 36  1  0
 30 37  2  0
 24  2  2  0
 37 26  1  0
 22  9  2  0
 36 31  2  0
 20 14  1  0
  1 38  1  0
  1 39  1  0
  1 40  1  0
  3 41  1  0
  4 42  1  0
  6 43  1  0
 10 44  1  0
 11 45  1  0
 13 46  1  0
 13 47  1  0
 15 48  1  0
 15 49  1  0
 16 50  1  0
 16 51  1  0
 18 52  1  0
 18 53  1  0
 18 54  1  0
 19 55  1  0
 19 56  1  0
 20 57  1  0
 20 58  1  0
 21 59  1  0
 22 60  1  0
 23 61  1  0
 25 62  1  0
 28 63  1  0
 29 64  1  0
 32 65  1  0
 33 66  1  0
 34 67  1  0
 36 68  1  0
M  END
>  <meeko>  (3) 
{"is_sidechain": false}

>  <vina_affinity_kcal_mol>  (3) 
-10.429

>  <pose_rank>  (3) 
3

$$$$

     RDKit          3D

 68 72  0  0  0  0  0  0  0  0999 V2000
  -36.3710  156.2840    7.6920 C   0  0  0  0  0  0  0  0  0  0  0  0
  -36.7690  156.6580    6.2880 C   0  0  0  0  0  0  0  0  0  0  0  0
  -36.7200  158.0100    5.9170 C   0  0  0  0  0  0  0  0  0  0  0  0
  -37.0590  158.4030    4.6240 C   0  0  0  0  0  0  0  0  0  0  0  0
  -37.4650  157.4590    3.6800 C   0  0  0  0  0  0  0  0  0  0  0  0
  -37.7860  157.9430    2.3940 N   0  0  0  0  0  0  0  0  0  0  0  0
  -39.0270  158.3360    1.9290 C   0  0  0  0  0  0  0  0  0  0  0  0
  -40.0560  158.4590    2.5810 O   0  0  0  0  0  0  0  0  0  0  0  0
  -39.0630  158.7030    0.4850 C   0  0  0  0  0  0  0  0  0  0  0  0
  -38.2380  158.0730   -0.4540 C   0  0  0  0  0  0  0  0  0  0  0  0
  -38.3050  158.4410   -1.8000 C   0  0  0  0  0  0  0  0  0  0  0  0
  -39.1970  159.4370   -2.2290 C   0  0  0  0  0  0  0  0  0  0  0  0
  -39.2710  159.8310   -3.6910 C   0  0  0  0  0  0  0  0  0  0  0  0
  -38.7240  161.1370   -4.0480 N   0  0  0  0  0  0  0  0  0  0  0  0
  -39.2440  162.2670   -3.2690 C   0  0  0  0  0  0  0  0  0  0  0  0
  -38.9360  163.6660   -3.8730 C   0  0  0  0  0  0  0  0  0  0  0  0
  -37.7150  163.6740   -4.6860 N   0  0  0  0  0  0  0  0  0  0  0  0
  -37.3910  165.0070   -5.1770 C   0  0  0  0  0  0  0  0  0  0  0  0
  -37.8180  162.6990   -5.7880 C   0  0  0  0  0  0  0  0  0  0  0  0
  -38.6700  161.4360   -5.4770 C   0  0  0  0  0  0  0  0  0  0  0  0
  -40.0370  160.0430   -1.2830 C   0  0  0  0  0  0  0  0  0  0  0  0
  -39.9740  159.6770    0.0640 C   0  0  0  0  0  0  0  0  0  0  0  0
  -37.5060  156.1090    4.0470 C   0  0  0  0  0  0  0  0  0  0  0  0
  -37.1760  155.6820    5.3480 C   0  0  0  0  0  0  0  0  0  0  0  0
  -37.1630  154.3270    5.7150 N   0  0  0  0  0  0  0  0  0  0  0  0
  -36.1600  153.3780    5.8870 C   0  0  0  0  0  0  0  0  0  0  0  0
  -35.0890  153.5440    5.0940 N   0  0  0  0  0  0  0  0  0  0  0  0
  -34.1020  152.6390    5.1990 C   0  0  0  0  0  0  0  0  0  0  0  0
  -34.1470  151.5640    6.0500 C   0  0  0  0  0  0  0  0  0  0  0  0
  -35.2860  151.4490    6.8200 C   0  0  0  0  0  0  0  0  0  0  0  0
  -35.4930  150.3550    7.7840 C   0  0  0  0  0  0  0  0  0  0  0  0
  -35.1470  150.4910    9.1350 C   0  0  0  0  0  0  0  0  0  0  0  0
  -35.3440  149.4450   10.0340 C   0  0  0  0  0  0  0  0  0  0  0  0
  -35.8920  148.2690    9.5590 C   0  0  0  0  0  0  0  0  0  0  0  0
  -36.2490  148.0790    8.2710 N   0  0  0  0  0  0  0  0  0  0  0  0
  -36.0480  149.1250    7.4270 C   0  0  0  0  0  0  0  0  0  0  0  0
  -36.2850  152.3540    6.7400 N   0  0  0  0  0  0  0  0  0  0  0  0
  -36.9785  156.8549    8.4097 H   0  0  0  0  0  0  0  0  0  0  0  0
  -36.5370  155.2075    7.8457 H   0  0  0  0  0  0  0  0  0  0  0  0
  -35.3069  156.5165    7.8457 H   0  0  0  0  0  0  0  0  0  0  0  0
  -36.4112  158.7665    6.6534 H   0  0  0  0  0  0  0  0  0  0  0  0
  -37.0062  159.4658    4.3452 H   0  0  0  0  0  0  0  0  0  0  0  0
  -37.0000  158.1010    1.7770 H   0  0  0  0  0  0  0  0  0  0  0  0
  -37.5372  157.2885   -0.1322 H   0  0  0  0  0  0  0  0  0  0  0  0
  -37.6513  157.9447   -2.5324 H   0  0  0  0  0  0  0  0  0  0  0  0
  -38.7238  159.0715   -4.2687 H   0  0  0  0  0  0  0  0  0  0  0  0
  -40.3453  159.8963   -3.9182 H   0  0  0  0  0  0  0  0  0  0  0  0
  -40.3361  162.1585   -3.1942 H   0  0  0  0  0  0  0  0  0  0  0  0
  -38.7389  162.2311   -2.2925 H   0  0  0  0  0  0  0  0  0  0  0  0
  -39.7825  163.9704   -4.5060 H   0  0  0  0  0  0  0  0  0  0  0  0
  -38.7832  164.3634   -3.0362 H   0  0  0  0  0  0  0  0  0  0  0  0
  -37.2269  165.6820   -4.3241 H   0  0  0  0  0  0  0  0  0  0  0  0
  -36.4780  164.9605   -5.7888 H   0  0  0  0  0  0  0  0  0  0  0  0
  -38.2235  165.3848   -5.7888 H   0  0  0  0  0  0  0  0  0  0  0  0
  -38.2683  163.2088   -6.6525 H   0  0  0  0  0  0  0  0  0  0  0  0
  -36.7953  162.3392   -5.9738 H   0  0  0  0  0  0  0  0  0  0  0  0
  -39.6943  161.6026   -5.8417 H   0  0  0  0  0  0  0  0  0  0  0  0
  -38.1963  160.5803   -5.9804 H   0  0  0  0  0  0  0  0  0  0  0  0
  -40.7525  160.8141   -1.6048 H   0  0  0  0  0  0  0  0  0  0  0  0
  -40.6423  160.1559    0.7948 H   0  0  0  0  0  0  0  0  0  0  0  0
  -37.8043  155.3604    3.2983 H   0  0  0  0  0  0  0  0  0  0  0  0
  -38.0550  153.8640    5.7930 H   0  0  0  0  0  0  0  0  0  0  0  0
  -33.2096  152.7668    4.5687 H   0  0  0  0  0  0  0  0  0  0  0  0
  -33.3240  150.8370    6.1146 H   0  0  0  0  0  0  0  0  0  0  0  0
  -34.7136  151.4373    9.4909 H   0  0  0  0  0  0  0  0  0  0  0  0
  -35.0705  149.5526   11.0940 H   0  0  0  0  0  0  0  0  0  0  0  0
  -36.0457  147.4428   10.2687 H   0  0  0  0  0  0  0  0  0  0  0  0
  -36.3471  148.9915    6.3769 H   0  0  0  0  0  0  0  0  0  0  0  0
  1  2  1  0
  2  3  1  0
  3  4  2  0
  4  5  1  0
  5  6  1  0
  6  7  1  0
  7  8  2  0
  7  9  1  0
  9 10  1  0
 10 11  2  0
 11 12  1  0
 12 13  1  0
 13 14  1  0
 14 15  1  0
 15 16  1  0
 16 17  1  0
 17 18  1  0
 17 19  1  0
 19 20  1  0
 12 21  2  0
 21 22  1  0
  5 23  2  0
 23 24  1  0
 24 25  1  0
 25 26  1  0
 26 27  2  0
 27 28  1  0
 28 29  2  0
 29 30  1  0
 30 31  1  0
 31 32  1  0
 32 33  2  0
 33 34  1  0
 34 35  2  0
 35 36  1  0
 30 37  2  0
 24  2  2  0
 37 26  1  0
 22  9  2  0
 36 31  2  0
 20 14  1  0
  1 38  1  0
  1 39  1  0
  1 40  1  0
  3 41  1  0
  4 42  1  0
  6 43  1  0
 10 44  1  0
 11 45  1  0
 13 46  1  0
 13 47  1  0
 15 48  1  0
 15 49  1  0
 16 50  1  0
 16 51  1  0
 18 52  1  0
 18 53  1  0
 18 54  1  0
 19 55  1  0
 19 56  1  0
 20 57  1  0
 20 58  1  0
 21 59  1  0
 22 60  1  0
 23 61  1  0
 25 62  1  0
 28 63  1  0
 29 64  1  0
 32 65  1  0
 33 66  1  0
 34 67  1  0
 36 68  1  0
M  END
>  <meeko>  (4) 
{"is_sidechain": false}

>  <vina_affinity_kcal_mol>  (4) 
-10.296

>  <pose_rank>  (4) 
4

$$$$

     RDKit          3D

 68 72  0  0  0  0  0  0  0  0999 V2000
  -37.3630  162.4780  -11.9170 C   0  0  0  0  0  0  0  0  0  0  0  0
  -37.4450  162.2300  -10.4340 C   0  0  0  0  0  0  0  0  0  0  0  0
  -38.0950  163.1800   -9.6320 C   0  0  0  0  0  0  0  0  0  0  0  0
  -38.2150  162.9870   -8.2580 C   0  0  0  0  0  0  0  0  0  0  0  0
  -37.6770  161.8490   -7.6540 C   0  0  0  0  0  0  0  0  0  0  0  0
  -37.8470  161.7300   -6.2580 N   0  0  0  0  0  0  0  0  0  0  0  0
  -38.8280  161.0240   -5.5860 C   0  0  0  0  0  0  0  0  0  0  0  0
  -39.6580  160.2680   -6.0730 O   0  0  0  0  0  0  0  0  0  0  0  0
  -38.8010  161.1780   -4.1040 C   0  0  0  0  0  0  0  0  0  0  0  0
  -39.1700  162.3770   -3.4830 C   0  0  0  0  0  0  0  0  0  0  0  0
  -39.1370  162.4800   -2.0900 C   0  0  0  0  0  0  0  0  0  0  0  0
  -38.7410  161.3910   -1.2980 C   0  0  0  0  0  0  0  0  0  0  0  0
  -38.7100  161.5040    0.2130 C   0  0  0  0  0  0  0  0  0  0  0  0
  -39.6220  160.6380    0.9550 N   0  0  0  0  0  0  0  0  0  0  0  0
  -38.9940  159.4870    1.6150 C   0  0  0  0  0  0  0  0  0  0  0  0
  -39.9900  158.3940    2.0960 C   0  0  0  0  0  0  0  0  0  0  0  0
  -41.3200  158.9340    2.3960 N   0  0  0  0  0  0  0  0  0  0  0  0
  -42.2200  157.9160    2.9250 C   0  0  0  0  0  0  0  0  0  0  0  0
  -41.8910  159.6000    1.2100 C   0  0  0  0  0  0  0  0  0  0  0  0
  -40.8540  160.2670    0.2630 C   0  0  0  0  0  0  0  0  0  0  0  0
  -38.3970  160.1870   -1.9300 C   0  0  0  0  0  0  0  0  0  0  0  0
  -38.4300  160.0790   -3.3240 C   0  0  0  0  0  0  0  0  0  0  0  0
  -37.0360  160.8970   -8.4540 C   0  0  0  0  0  0  0  0  0  0  0  0
  -36.8940  161.0690   -9.8440 C   0  0  0  0  0  0  0  0  0  0  0  0
  -36.2990  160.0970  -10.6660 N   0  0  0  0  0  0  0  0  0  0  0  0
  -36.2160  158.7090  -10.6230 C   0  0  0  0  0  0  0  0  0  0  0  0
  -37.3840  158.0850  -10.3970 N   0  0  0  0  0  0  0  0  0  0  0  0
  -37.3560  156.7440  -10.3180 C   0  0  0  0  0  0  0  0  0  0  0  0
  -36.2090  156.0010  -10.4360 C   0  0  0  0  0  0  0  0  0  0  0  0
  -35.0460  156.7130  -10.6490 C   0  0  0  0  0  0  0  0  0  0  0  0
  -33.7300  156.0700  -10.8000 C   0  0  0  0  0  0  0  0  0  0  0  0
  -32.5390  156.8010  -10.7020 C   0  0  0  0  0  0  0  0  0  0  0  0
  -31.3020  156.1800  -10.8520 C   0  0  0  0  0  0  0  0  0  0  0  0
  -31.2790  154.8200  -11.1000 C   0  0  0  0  0  0  0  0  0  0  0  0
  -32.3900  154.0620  -11.2010 N   0  0  0  0  0  0  0  0  0  0  0  0
  -33.5770  154.7030  -11.0420 C   0  0  0  0  0  0  0  0  0  0  0  0
  -35.0520  158.0600  -10.7450 N   0  0  0  0  0  0  0  0  0  0  0  0
  -37.0224  163.5081  -12.0982 H   0  0  0  0  0  0  0  0  0  0  0  0
  -36.6506  161.7716  -12.3681 H   0  0  0  0  0  0  0  0  0  0  0  0
  -38.3561  162.3355  -12.3681 H   0  0  0  0  0  0  0  0  0  0  0  0
  -38.5141  164.0865  -10.0931 H   0  0  0  0  0  0  0  0  0  0  0  0
  -38.7371  163.7361   -7.6446 H   0  0  0  0  0  0  0  0  0  0  0  0
  -37.1130  162.1360   -5.6920 H   0  0  0  0  0  0  0  0  0  0  0  0
  -39.4857  163.2375   -4.0912 H   0  0  0  0  0  0  0  0  0  0  0  0
  -39.4249  163.4260   -1.6082 H   0  0  0  0  0  0  0  0  0  0  0  0
  -37.6869  161.2715    0.5435 H   0  0  0  0  0  0  0  0  0  0  0  0
  -39.0425  162.5293    0.4327 H   0  0  0  0  0  0  0  0  0  0  0  0
  -38.2935  159.0241    0.9043 H   0  0  0  0  0  0  0  0  0  0  0  0
  -38.4991  159.8765    2.5169 H   0  0  0  0  0  0  0  0  0  0  0  0
  -40.0882  157.6349    1.3060 H   0  0  0  0  0  0  0  0  0  0  0  0
  -39.5883  157.9637    3.0253 H   0  0  0  0  0  0  0  0  0  0  0  0
  -42.1971  157.9419    4.0245 H   0  0  0  0  0  0  0  0  0  0  0  0
  -43.2438  158.1140    2.5748 H   0  0  0  0  0  0  0  0  0  0  0  0
  -41.8980  156.9242    2.5748 H   0  0  0  0  0  0  0  0  0  0  0  0
  -42.4460  158.8472    0.6310 H   0  0  0  0  0  0  0  0  0  0  0  0
  -42.5242  160.4144    1.5920 H   0  0  0  0  0  0  0  0  0  0  0  0
  -40.6068  159.5605   -0.5431 H   0  0  0  0  0  0  0  0  0  0  0  0
  -41.3062  161.1888   -0.1317 H   0  0  0  0  0  0  0  0  0  0  0  0
  -38.0984  159.3193   -1.3234 H   0  0  0  0  0  0  0  0  0  0  0  0
  -38.1635  159.1275   -3.8074 H   0  0  0  0  0  0  0  0  0  0  0  0
  -36.6316  159.9886   -7.9837 H   0  0  0  0  0  0  0  0  0  0  0  0
  -35.7120  160.4280  -11.4160 H   0  0  0  0  0  0  0  0  0  0  0  0
  -38.3045  156.2131  -10.1495 H   0  0  0  0  0  0  0  0  0  0  0  0
  -36.2157  154.9033  -10.3651 H   0  0  0  0  0  0  0  0  0  0  0  0
  -32.5818  157.8821  -10.5035 H   0  0  0  0  0  0  0  0  0  0  0  0
  -30.3680  156.7559  -10.7753 H   0  0  0  0  0  0  0  0  0  0  0  0
  -30.3018  154.3297  -11.2215 H   0  0  0  0  0  0  0  0  0  0  0  0
  -34.4920  154.0962  -11.1093 H   0  0  0  0  0  0  0  0  0  0  0  0
  1  2  1  0
  2  3  1  0
  3  4  2  0
  4  5  1  0
  5  6  1  0
  6  7  1  0
  7  8  2  0
  7  9  1  0
  9 10  1  0
 10 11  2  0
 11 12  1  0
 12 13  1  0
 13 14  1  0
 14 15  1  0
 15 16  1  0
 16 17  1  0
 17 18  1  0
 17 19  1  0
 19 20  1  0
 12 21  2  0
 21 22  1  0
  5 23  2  0
 23 24  1  0
 24 25  1  0
 25 26  1  0
 26 27  2  0
 27 28  1  0
 28 29  2  0
 29 30  1  0
 30 31  1  0
 31 32  1  0
 32 33  2  0
 33 34  1  0
 34 35  2  0
 35 36  1  0
 30 37  2  0
 24  2  2  0
 37 26  1  0
 22  9  2  0
 36 31  2  0
 20 14  1  0
  1 38  1  0
  1 39  1  0
  1 40  1  0
  3 41  1  0
  4 42  1  0
  6 43  1  0
 10 44  1  0
 11 45  1  0
 13 46  1  0
 13 47  1  0
 15 48  1  0
 15 49  1  0
 16 50  1  0
 16 51  1  0
 18 52  1  0
 18 53  1  0
 18 54  1  0
 19 55  1  0
 19 56  1  0
 20 57  1  0
 20 58  1  0
 21 59  1  0
 22 60  1  0
 23 61  1  0
 25 62  1  0
 28 63  1  0
 29 64  1  0
 32 65  1  0
 33 66  1  0
 34 67  1  0
 36 68  1  0
M  END
>  <meeko>  (5) 
{"is_sidechain": false}

>  <vina_affinity_kcal_mol>  (5) 
-10.29

>  <pose_rank>  (5) 
5

$$$$

     RDKit          3D

 68 72  0  0  0  0  0  0  0  0999 V2000
  -39.5050  160.1700   -4.3170 C   0  0  0  0  0  0  0  0  0  0  0  0
  -39.1590  159.7160   -2.9230 C   0  0  0  0  0  0  0  0  0  0  0  0
  -38.8970  158.3540   -2.7100 C   0  0  0  0  0  0  0  0  0  0  0  0
  -38.5520  157.8870   -1.4430 C   0  0  0  0  0  0  0  0  0  0  0  0
  -38.4750  158.7670   -0.3620 C   0  0  0  0  0  0  0  0  0  0  0  0
  -38.1160  158.2110    0.8850 N   0  0  0  0  0  0  0  0  0  0  0  0
  -38.5880  158.5710    2.1330 C   0  0  0  0  0  0  0  0  0  0  0  0
  -39.4980  159.3510    2.3830 O   0  0  0  0  0  0  0  0  0  0  0  0
  -37.9360  157.8650    3.2730 C   0  0  0  0  0  0  0  0  0  0  0  0
  -37.3680  158.5660    4.3420 C   0  0  0  0  0  0  0  0  0  0  0  0
  -36.7700  157.8670    5.3950 C   0  0  0  0  0  0  0  0  0  0  0  0
  -36.7340  156.4640    5.3970 C   0  0  0  0  0  0  0  0  0  0  0  0
  -36.0890  155.7090    6.5430 C   0  0  0  0  0  0  0  0  0  0  0  0
  -35.7940  154.2970    6.3150 N   0  0  0  0  0  0  0  0  0  0  0  0
  -36.6620  153.3530    7.0290 C   0  0  0  0  0  0  0  0  0  0  0  0
  -36.1350  151.8900    7.0660 C   0  0  0  0  0  0  0  0  0  0  0  0
  -35.2770  151.5690    5.9210 N   0  0  0  0  0  0  0  0  0  0  0  0
  -34.8570  150.1730    5.9230 C   0  0  0  0  0  0  0  0  0  0  0  0
  -34.1210  152.4840    5.8650 C   0  0  0  0  0  0  0  0  0  0  0  0
  -34.3850  153.9190    6.4020 C   0  0  0  0  0  0  0  0  0  0  0  0
  -37.3300  155.7720    4.3320 C   0  0  0  0  0  0  0  0  0  0  0  0
  -37.9300  156.4660    3.2780 C   0  0  0  0  0  0  0  0  0  0  0  0
  -38.7290  160.1260   -0.5750 C   0  0  0  0  0  0  0  0  0  0  0  0
  -39.0860  160.6250   -1.8430 C   0  0  0  0  0  0  0  0  0  0  0  0
  -39.2910  161.9940   -2.0820 N   0  0  0  0  0  0  0  0  0  0  0  0
  -38.8350  162.8910   -3.0420 C   0  0  0  0  0  0  0  0  0  0  0  0
  -38.8820  164.1810   -2.6720 N   0  0  0  0  0  0  0  0  0  0  0  0
  -38.4790  165.0910   -3.5740 C   0  0  0  0  0  0  0  0  0  0  0  0
  -38.0490  164.7710   -4.8360 C   0  0  0  0  0  0  0  0  0  0  0  0
  -38.0450  163.4270   -5.1510 C   0  0  0  0  0  0  0  0  0  0  0  0
  -37.6120  162.9130   -6.4610 C   0  0  0  0  0  0  0  0  0  0  0  0
  -36.8280  161.7570   -6.5740 C   0  0  0  0  0  0  0  0  0  0  0  0
  -36.4210  161.2860   -7.8200 C   0  0  0  0  0  0  0  0  0  0  0  0
  -36.8130  161.9880   -8.9440 C   0  0  0  0  0  0  0  0  0  0  0  0
  -37.5710  163.1040   -8.9000 N   0  0  0  0  0  0  0  0  0  0  0  0
  -37.9530  163.5270   -7.6670 C   0  0  0  0  0  0  0  0  0  0  0  0
  -38.4340  162.4920   -4.2560 N   0  0  0  0  0  0  0  0  0  0  0  0
  -40.1710  161.0438   -4.2633 H   0  0  0  0  0  0  0  0  0  0  0  0
  -38.5840  160.4433   -4.8528 H   0  0  0  0  0  0  0  0  0  0  0  0
  -40.0127  159.3544   -4.8528 H   0  0  0  0  0  0  0  0  0  0  0  0
  -38.9646  157.6482   -3.5510 H   0  0  0  0  0  0  0  0  0  0  0  0
  -38.3390  156.8182   -1.2938 H   0  0  0  0  0  0  0  0  0  0  0  0
  -37.5130  157.4000    0.8450 H   0  0  0  0  0  0  0  0  0  0  0  0
  -37.3918  159.6657    4.3542 H   0  0  0  0  0  0  0  0  0  0  0  0
  -36.3224  158.4233    6.2318 H   0  0  0  0  0  0  0  0  0  0  0  0
  -35.1411  156.2130    6.7825 H   0  0  0  0  0  0  0  0  0  0  0  0
  -36.8336  155.7215    7.3526 H   0  0  0  0  0  0  0  0  0  0  0  0
  -36.7719  153.7045    8.0655 H   0  0  0  0  0  0  0  0  0  0  0  0
  -37.6142  153.3276    6.4789 H   0  0  0  0  0  0  0  0  0  0  0  0
  -35.5561  151.7476    7.9905 H   0  0  0  0  0  0  0  0  0  0  0  0
  -37.0074  151.2212    7.0256 H   0  0  0  0  0  0  0  0  0  0  0  0
  -34.7518  149.8233    6.9606 H   0  0  0  0  0  0  0  0  0  0  0  0
  -35.6112  149.5624    5.4050 H   0  0  0  0  0  0  0  0  0  0  0  0
  -33.8911  150.0800    5.4050 H   0  0  0  0  0  0  0  0  0  0  0  0
  -33.3083  152.0422    6.4603 H   0  0  0  0  0  0  0  0  0  0  0  0
  -33.8737  152.5979    4.7992 H   0  0  0  0  0  0  0  0  0  0  0  0
  -34.0715  153.9650    7.4554 H   0  0  0  0  0  0  0  0  0  0  0  0
  -33.8109  154.6207    5.7790 H   0  0  0  0  0  0  0  0  0  0  0  0
  -37.3249  154.6720    4.3266 H   0  0  0  0  0  0  0  0  0  0  0  0
  -38.3982  155.9117    2.4512 H   0  0  0  0  0  0  0  0  0  0  0  0
  -38.6477  160.8243    0.2710 H   0  0  0  0  0  0  0  0  0  0  0  0
  -39.8000  162.5110   -1.3800 H   0  0  0  0  0  0  0  0  0  0  0  0
  -38.4948  166.1520   -3.2841 H   0  0  0  0  0  0  0  0  0  0  0  0
  -37.7266  165.5391   -5.5543 H   0  0  0  0  0  0  0  0  0  0  0  0
  -36.5296  161.2136   -5.6653 H   0  0  0  0  0  0  0  0  0  0  0  0
  -35.8040  160.3795   -7.9070 H   0  0  0  0  0  0  0  0  0  0  0  0
  -36.4898  161.6172   -9.9279 H   0  0  0  0  0  0  0  0  0  0  0  0
  -38.5828  164.4273   -7.6148 H   0  0  0  0  0  0  0  0  0  0  0  0
  1  2  1  0
  2  3  1  0
  3  4  2  0
  4  5  1  0
  5  6  1  0
  6  7  1  0
  7  8  2  0
  7  9  1  0
  9 10  1  0
 10 11  2  0
 11 12  1  0
 12 13  1  0
 13 14  1  0
 14 15  1  0
 15 16  1  0
 16 17  1  0
 17 18  1  0
 17 19  1  0
 19 20  1  0
 12 21  2  0
 21 22  1  0
  5 23  2  0
 23 24  1  0
 24 25  1  0
 25 26  1  0
 26 27  2  0
 27 28  1  0
 28 29  2  0
 29 30  1  0
 30 31  1  0
 31 32  1  0
 32 33  2  0
 33 34  1  0
 34 35  2  0
 35 36  1  0
 30 37  2  0
 24  2  2  0
 37 26  1  0
 22  9  2  0
 36 31  2  0
 20 14  1  0
  1 38  1  0
  1 39  1  0
  1 40  1  0
  3 41  1  0
  4 42  1  0
  6 43  1  0
 10 44  1  0
 11 45  1  0
 13 46  1  0
 13 47  1  0
 15 48  1  0
 15 49  1  0
 16 50  1  0
 16 51  1  0
 18 52  1  0
 18 53  1  0
 18 54  1  0
 19 55  1  0
 19 56  1  0
 20 57  1  0
 20 58  1  0
 21 59  1  0
 22 60  1  0
 23 61  1  0
 25 62  1  0
 28 63  1  0
 29 64  1  0
 32 65  1  0
 33 66  1  0
 34 67  1  0
 36 68  1  0
M  END
>  <meeko>  (6) 
{"is_sidechain": false}

>  <vina_affinity_kcal_mol>  (6) 
-9.97

>  <pose_rank>  (6) 
6

$$$$

     RDKit          3D

 68 72  0  0  0  0  0  0  0  0999 V2000
  -41.0230  158.7410    2.5060 C   0  0  0  0  0  0  0  0  0  0  0  0
  -40.4430  159.1490    1.1760 C   0  0  0  0  0  0  0  0  0  0  0  0
  -41.0690  160.1810    0.4610 C   0  0  0  0  0  0  0  0  0  0  0  0
  -40.5590  160.6080   -0.7620 C   0  0  0  0  0  0  0  0  0  0  0  0
  -39.4220  160.0050   -1.3040 C   0  0  0  0  0  0  0  0  0  0  0  0
  -38.9700  160.5010   -2.5460 N   0  0  0  0  0  0  0  0  0  0  0  0
  -38.9550  161.8160   -2.9710 C   0  0  0  0  0  0  0  0  0  0  0  0
  -39.2130  162.8110   -2.3060 O   0  0  0  0  0  0  0  0  0  0  0  0
  -38.5140  162.0090   -4.3820 C   0  0  0  0  0  0  0  0  0  0  0  0
  -37.7460  163.1140   -4.7660 C   0  0  0  0  0  0  0  0  0  0  0  0
  -37.3460  163.2570   -6.0980 C   0  0  0  0  0  0  0  0  0  0  0  0
  -37.7030  162.3000   -7.0610 C   0  0  0  0  0  0  0  0  0  0  0  0
  -37.2640  162.4550   -8.5040 C   0  0  0  0  0  0  0  0  0  0  0  0
  -37.0830  163.8190   -8.9920 N   0  0  0  0  0  0  0  0  0  0  0  0
  -38.2410  164.7050   -8.8210 C   0  0  0  0  0  0  0  0  0  0  0  0
  -38.1760  166.0230   -9.6420 C   0  0  0  0  0  0  0  0  0  0  0  0
  -36.7990  166.4540   -9.9110 N   0  0  0  0  0  0  0  0  0  0  0  0
  -36.7500  167.7320  -10.6090 C   0  0  0  0  0  0  0  0  0  0  0  0
  -36.0610  165.4070  -10.6430 C   0  0  0  0  0  0  0  0  0  0  0  0
  -36.4890  163.9470  -10.3210 C   0  0  0  0  0  0  0  0  0  0  0  0
  -38.4510  161.1840   -6.6590 C   0  0  0  0  0  0  0  0  0  0  0  0
  -38.8520  161.0360   -5.3280 C   0  0  0  0  0  0  0  0  0  0  0  0
  -38.7920  158.9810   -0.5880 C   0  0  0  0  0  0  0  0  0  0  0  0
  -39.2890  158.5240    0.6480 C   0  0  0  0  0  0  0  0  0  0  0  0
  -38.6370  157.5350    1.4020 N   0  0  0  0  0  0  0  0  0  0  0  0
  -38.0700  157.4980    2.6720 C   0  0  0  0  0  0  0  0  0  0  0  0
  -37.6600  158.6890    3.1370 N   0  0  0  0  0  0  0  0  0  0  0  0
  -37.0790  158.7060    4.3480 C   0  0  0  0  0  0  0  0  0  0  0  0
  -36.8730  157.5820    5.1070 C   0  0  0  0  0  0  0  0  0  0  0  0
  -37.3050  156.3930    4.5560 C   0  0  0  0  0  0  0  0  0  0  0  0
  -37.1620  155.0960    5.2380 C   0  0  0  0  0  0  0  0  0  0  0  0
  -36.6260  155.0000    6.5290 C   0  0  0  0  0  0  0  0  0  0  0  0
  -36.4910  153.7640    7.1590 C   0  0  0  0  0  0  0  0  0  0  0  0
  -36.9010  152.6350    6.4770 C   0  0  0  0  0  0  0  0  0  0  0  0
  -37.4280  152.6630    5.2350 N   0  0  0  0  0  0  0  0  0  0  0  0
  -37.5500  153.8870    4.6570 C   0  0  0  0  0  0  0  0  0  0  0  0
  -37.9030  156.3530    3.3450 N   0  0  0  0  0  0  0  0  0  0  0  0
  -40.4156  159.1683    3.3175 H   0  0  0  0  0  0  0  0  0  0  0  0
  -42.0551  159.1131    2.5856 H   0  0  0  0  0  0  0  0  0  0  0  0
  -41.0216  157.6439    2.5856 H   0  0  0  0  0  0  0  0  0  0  0  0
  -41.9718  160.6575    0.8708 H   0  0  0  0  0  0  0  0  0  0  0  0
  -41.0550  161.4259   -1.3051 H   0  0  0  0  0  0  0  0  0  0  0  0
  -38.5270  159.8240   -3.1520 H   0  0  0  0  0  0  0  0  0  0  0  0
  -37.4572  163.8695   -4.0204 H   0  0  0  0  0  0  0  0  0  0  0  0
  -36.7449  164.1291   -6.3947 H   0  0  0  0  0  0  0  0  0  0  0  0
  -36.3041  161.9301   -8.6185 H   0  0  0  0  0  0  0  0  0  0  0  0
  -38.0887  162.0411   -9.1028 H   0  0  0  0  0  0  0  0  0  0  0  0
  -39.1424  164.1541   -9.1278 H   0  0  0  0  0  0  0  0  0  0  0  0
  -38.2539  164.9991   -7.7611 H   0  0  0  0  0  0  0  0  0  0  0  0
  -38.6896  165.8656  -10.6019 H   0  0  0  0  0  0  0  0  0  0  0  0
  -38.6608  166.8104   -9.0463 H   0  0  0  0  0  0  0  0  0  0  0  0
  -36.7186  168.5501   -9.8743 H   0  0  0  0  0  0  0  0  0  0  0  0
  -35.8497  167.7710  -11.2398 H   0  0  0  0  0  0  0  0  0  0  0  0
  -37.6447  167.8398  -11.2398 H   0  0  0  0  0  0  0  0  0  0  0  0
  -36.2097  165.5755  -11.7198 H   0  0  0  0  0  0  0  0  0  0  0  0
  -35.0115  165.4945  -10.3253 H   0  0  0  0  0  0  0  0  0  0  0  0
  -37.2263  163.6221  -11.0699 H   0  0  0  0  0  0  0  0  0  0  0  0
  -35.5853  163.3203  -10.3453 H   0  0  0  0  0  0  0  0  0  0  0  0
  -38.7250  160.4172   -7.3986 H   0  0  0  0  0  0  0  0  0  0  0  0
  -39.4340  160.1533   -5.0244 H   0  0  0  0  0  0  0  0  0  0  0  0
  -37.8831  158.5201   -1.0021 H   0  0  0  0  0  0  0  0  0  0  0  0
  -38.4230  156.6680    0.9330 H   0  0  0  0  0  0  0  0  0  0  0  0
  -36.7504  159.6743    4.7533 H   0  0  0  0  0  0  0  0  0  0  0  0
  -36.3923  157.6259    6.0954 H   0  0  0  0  0  0  0  0  0  0  0  0
  -36.3072  155.9132    7.0529 H   0  0  0  0  0  0  0  0  0  0  0  0
  -36.0692  153.6897    8.1722 H   0  0  0  0  0  0  0  0  0  0  0  0
  -36.7920  151.6595    6.9735 H   0  0  0  0  0  0  0  0  0  0  0  0
  -37.9901  153.9286    3.6497 H   0  0  0  0  0  0  0  0  0  0  0  0
  1  2  1  0
  2  3  1  0
  3  4  2  0
  4  5  1  0
  5  6  1  0
  6  7  1  0
  7  8  2  0
  7  9  1  0
  9 10  1  0
 10 11  2  0
 11 12  1  0
 12 13  1  0
 13 14  1  0
 14 15  1  0
 15 16  1  0
 16 17  1  0
 17 18  1  0
 17 19  1  0
 19 20  1  0
 12 21  2  0
 21 22  1  0
  5 23  2  0
 23 24  1  0
 24 25  1  0
 25 26  1  0
 26 27  2  0
 27 28  1  0
 28 29  2  0
 29 30  1  0
 30 31  1  0
 31 32  1  0
 32 33  2  0
 33 34  1  0
 34 35  2  0
 35 36  1  0
 30 37  2  0
 24  2  2  0
 37 26  1  0
 22  9  2  0
 36 31  2  0
 20 14  1  0
  1 38  1  0
  1 39  1  0
  1 40  1  0
  3 41  1  0
  4 42  1  0
  6 43  1  0
 10 44  1  0
 11 45  1  0
 13 46  1  0
 13 47  1  0
 15 48  1  0
 15 49  1  0
 16 50  1  0
 16 51  1  0
 18 52  1  0
 18 53  1  0
 18 54  1  0
 19 55  1  0
 19 56  1  0
 20 57  1  0
 20 58  1  0
 21 59  1  0
 22 60  1  0
 23 61  1  0
 25 62  1  0
 28 63  1  0
 29 64  1  0
 32 65  1  0
 33 66  1  0
 34 67  1  0
 36 68  1  0
M  END
>  <meeko>  (7) 
{"is_sidechain": false}

>  <vina_affinity_kcal_mol>  (7) 
-9.913

>  <pose_rank>  (7) 
7

$$$$

     RDKit          3D

 68 72  0  0  0  0  0  0  0  0999 V2000
  -36.5300  158.9510    5.2490 C   0  0  0  0  0  0  0  0  0  0  0  0
  -36.8590  157.4830    5.1840 C   0  0  0  0  0  0  0  0  0  0  0  0
  -36.7600  156.7230    6.3590 C   0  0  0  0  0  0  0  0  0  0  0  0
  -37.0720  155.3660    6.3560 C   0  0  0  0  0  0  0  0  0  0  0  0
  -37.4770  154.7360    5.1780 C   0  0  0  0  0  0  0  0  0  0  0  0
  -37.7780  153.3600    5.2630 N   0  0  0  0  0  0  0  0  0  0  0  0
  -36.8940  152.3170    5.4720 C   0  0  0  0  0  0  0  0  0  0  0  0
  -35.7040  152.4010    5.7460 O   0  0  0  0  0  0  0  0  0  0  0  0
  -37.5070  150.9600    5.4080 C   0  0  0  0  0  0  0  0  0  0  0  0
  -36.7240  149.8000    5.4090 C   0  0  0  0  0  0  0  0  0  0  0  0
  -37.3370  148.5450    5.3530 C   0  0  0  0  0  0  0  0  0  0  0  0
  -38.7340  148.4300    5.3010 C   0  0  0  0  0  0  0  0  0  0  0  0
  -39.3960  147.0660    5.2450 C   0  0  0  0  0  0  0  0  0  0  0  0
  -40.1990  146.6790    6.4020 N   0  0  0  0  0  0  0  0  0  0  0  0
  -39.4590  146.0170    7.4840 C   0  0  0  0  0  0  0  0  0  0  0  0
  -40.3530  145.3020    8.5360 C   0  0  0  0  0  0  0  0  0  0  0  0
  -41.6840  145.9070    8.6520 N   0  0  0  0  0  0  0  0  0  0  0  0
  -42.4830  145.2820    9.6980 C   0  0  0  0  0  0  0  0  0  0  0  0
  -42.3800  145.8850    7.3510 C   0  0  0  0  0  0  0  0  0  0  0  0
  -41.4580  145.9990    6.1050 C   0  0  0  0  0  0  0  0  0  0  0  0
  -39.5090  149.5980    5.3260 C   0  0  0  0  0  0  0  0  0  0  0  0
  -38.9010  150.8560    5.3820 C   0  0  0  0  0  0  0  0  0  0  0  0
  -37.5840  155.4950    4.0070 C   0  0  0  0  0  0  0  0  0  0  0  0
  -37.2680  156.8670    3.9790 C   0  0  0  0  0  0  0  0  0  0  0  0
  -37.4220  157.6510    2.8230 N   0  0  0  0  0  0  0  0  0  0  0  0
  -38.5060  158.2640    2.2040 C   0  0  0  0  0  0  0  0  0  0  0  0
  -39.6610  158.1790    2.8830 N   0  0  0  0  0  0  0  0  0  0  0  0
  -40.7470  158.7300    2.3160 C   0  0  0  0  0  0  0  0  0  0  0  0
  -40.7330  159.3470    1.0910 C   0  0  0  0  0  0  0  0  0  0  0  0
  -39.5140  159.3800    0.4440 C   0  0  0  0  0  0  0  0  0  0  0  0
  -39.3240  160.0030   -0.8760 C   0  0  0  0  0  0  0  0  0  0  0  0
  -38.8980  159.2610   -1.9850 C   0  0  0  0  0  0  0  0  0  0  0  0
  -38.7170  159.8660   -3.2260 C   0  0  0  0  0  0  0  0  0  0  0  0
  -38.9710  161.2200   -3.3360 C   0  0  0  0  0  0  0  0  0  0  0  0
  -39.3880  161.9870   -2.3070 N   0  0  0  0  0  0  0  0  0  0  0  0
  -39.5590  161.3590   -1.1150 C   0  0  0  0  0  0  0  0  0  0  0  0
  -38.4060  158.8430    1.0010 N   0  0  0  0  0  0  0  0  0  0  0  0
  -36.4597  159.2648    6.3010 H   0  0  0  0  0  0  0  0  0  0  0  0
  -35.5686  159.1339    4.7468 H   0  0  0  0  0  0  0  0  0  0  0  0
  -37.3214  159.5267    4.7468 H   0  0  0  0  0  0  0  0  0  0  0  0
  -36.4325  157.2041    7.2924 H   0  0  0  0  0  0  0  0  0  0  0  0
  -36.9988  154.7865    7.2881 H   0  0  0  0  0  0  0  0  0  0  0  0
  -38.7620  153.1260    5.2610 H   0  0  0  0  0  0  0  0  0  0  0  0
  -35.6275  149.8758    5.4538 H   0  0  0  0  0  0  0  0  0  0  0  0
  -36.7165  147.6368    5.3497 H   0  0  0  0  0  0  0  0  0  0  0  0
  -40.0530  147.0502    4.3629 H   0  0  0  0  0  0  0  0  0  0  0  0
  -38.5673  146.3434    5.2133 H   0  0  0  0  0  0  0  0  0  0  0  0
  -38.7915  145.2671    7.0344 H   0  0  0  0  0  0  0  0  0  0  0  0
  -38.9175  146.8093    8.0217 H   0  0  0  0  0  0  0  0  0  0  0  0
  -40.4696  144.2487    8.2412 H   0  0  0  0  0  0  0  0  0  0  0  0
  -39.8578  145.3982    9.5135 H   0  0  0  0  0  0  0  0  0  0  0  0
  -42.0977  145.5834   10.6832 H   0  0  0  0  0  0  0  0  0  0  0  0
  -43.5306  145.6028    9.6002 H   0  0  0  0  0  0  0  0  0  0  0  0
  -42.4239  144.1879    9.6002 H   0  0  0  0  0  0  0  0  0  0  0  0
  -42.9351  144.9381    7.2780 H   0  0  0  0  0  0  0  0  0  0  0  0
  -43.0257  146.7754    7.3353 H   0  0  0  0  0  0  0  0  0  0  0  0
  -41.2342  144.9866    5.7377 H   0  0  0  0  0  0  0  0  0  0  0  0
  -41.9898  146.5947    5.3485 H   0  0  0  0  0  0  0  0  0  0  0  0
  -40.6062  149.5241    5.3013 H   0  0  0  0  0  0  0  0  0  0  0  0
  -39.5202  151.7649    5.4056 H   0  0  0  0  0  0  0  0  0  0  0  0
  -37.9246  155.0060    3.0824 H   0  0  0  0  0  0  0  0  0  0  0  0
  -36.6170  157.7450    2.2230 H   0  0  0  0  0  0  0  0  0  0  0  0
  -41.6996  158.6839    2.8640 H   0  0  0  0  0  0  0  0  0  0  0  0
  -41.6389  159.7890    0.6506 H   0  0  0  0  0  0  0  0  0  0  0  0
  -38.7035  158.1841   -1.8739 H   0  0  0  0  0  0  0  0  0  0  0  0
  -38.3809  159.2819   -4.0954 H   0  0  0  0  0  0  0  0  0  0  0  0
  -38.8253  161.6986   -4.3157 H   0  0  0  0  0  0  0  0  0  0  0  0
  -39.9111  161.9676   -0.2691 H   0  0  0  0  0  0  0  0  0  0  0  0
  1  2  1  0
  2  3  1  0
  3  4  2  0
  4  5  1  0
  5  6  1  0
  6  7  1  0
  7  8  2  0
  7  9  1  0
  9 10  1  0
 10 11  2  0
 11 12  1  0
 12 13  1  0
 13 14  1  0
 14 15  1  0
 15 16  1  0
 16 17  1  0
 17 18  1  0
 17 19  1  0
 19 20  1  0
 12 21  2  0
 21 22  1  0
  5 23  2  0
 23 24  1  0
 24 25  1  0
 25 26  1  0
 26 27  2  0
 27 28  1  0
 28 29  2  0
 29 30  1  0
 30 31  1  0
 31 32  1  0
 32 33  2  0
 33 34  1  0
 34 35  2  0
 35 36  1  0
 30 37  2  0
 24  2  2  0
 37 26  1  0
 22  9  2  0
 36 31  2  0
 20 14  1  0
  1 38  1  0
  1 39  1  0
  1 40  1  0
  3 41  1  0
  4 42  1  0
  6 43  1  0
 10 44  1  0
 11 45  1  0
 13 46  1  0
 13 47  1  0
 15 48  1  0
 15 49  1  0
 16 50  1  0
 16 51  1  0
 18 52  1  0
 18 53  1  0
 18 54  1  0
 19 55  1  0
 19 56  1  0
 20 57  1  0
 20 58  1  0
 21 59  1  0
 22 60  1  0
 23 61  1  0
 25 62  1  0
 28 63  1  0
 29 64  1  0
 32 65  1  0
 33 66  1  0
 34 67  1  0
 36 68  1  0
M  END
>  <meeko>  (8) 
{"is_sidechain": false}

>  <vina_affinity_kcal_mol>  (8) 
-9.844

>  <pose_rank>  (8) 
8

$$$$

     RDKit          3D

 68 72  0  0  0  0  0  0  0  0999 V2000
  -38.2220  165.4520   -7.4000 C   0  0  0  0  0  0  0  0  0  0  0  0
  -38.2380  164.4640   -6.2630 C   0  0  0  0  0  0  0  0  0  0  0  0
  -39.0350  164.7460   -5.1430 C   0  0  0  0  0  0  0  0  0  0  0  0
  -39.1000  163.8540   -4.0750 C   0  0  0  0  0  0  0  0  0  0  0  0
  -38.3600  162.6700   -4.0960 C   0  0  0  0  0  0  0  0  0  0  0  0
  -38.4860  161.8220   -2.9750 N   0  0  0  0  0  0  0  0  0  0  0  0
  -38.9850  160.5330   -2.9480 C   0  0  0  0  0  0  0  0  0  0  0  0
  -39.2930  159.8390   -3.9080 O   0  0  0  0  0  0  0  0  0  0  0  0
  -39.0860  159.9330   -1.5870 C   0  0  0  0  0  0  0  0  0  0  0  0
  -39.7890  160.5660   -0.5560 C   0  0  0  0  0  0  0  0  0  0  0  0
  -39.8660  159.9690    0.7050 C   0  0  0  0  0  0  0  0  0  0  0  0
  -39.2470  158.7340    0.9540 C   0  0  0  0  0  0  0  0  0  0  0  0
  -39.3350  158.0870    2.3220 C   0  0  0  0  0  0  0  0  0  0  0  0
  -38.0810  157.6310    2.9150 N   0  0  0  0  0  0  0  0  0  0  0  0
  -38.0720  156.2340    3.3650 C   0  0  0  0  0  0  0  0  0  0  0  0
  -36.8850  155.8610    4.2970 C   0  0  0  0  0  0  0  0  0  0  0  0
  -35.7010  156.6950    4.0660 N   0  0  0  0  0  0  0  0  0  0  0  0
  -34.5690  156.2820    4.8860 C   0  0  0  0  0  0  0  0  0  0  0  0
  -36.0230  158.1210    4.2630 C   0  0  0  0  0  0  0  0  0  0  0  0
  -37.4800  158.5270    3.9010 C   0  0  0  0  0  0  0  0  0  0  0  0
  -38.5660  158.0970   -0.0940 C   0  0  0  0  0  0  0  0  0  0  0  0
  -38.4880  158.6900   -1.3570 C   0  0  0  0  0  0  0  0  0  0  0  0
  -37.5710  162.3850   -5.2160 C   0  0  0  0  0  0  0  0  0  0  0  0
  -37.4810  163.2700   -6.3070 C   0  0  0  0  0  0  0  0  0  0  0  0
  -36.7350  162.9720   -7.4590 N   0  0  0  0  0  0  0  0  0  0  0  0
  -37.0120  162.3100   -8.6500 C   0  0  0  0  0  0  0  0  0  0  0  0
  -37.6480  163.0540   -9.5700 N   0  0  0  0  0  0  0  0  0  0  0  0
  -37.9660  162.4560  -10.7290 C   0  0  0  0  0  0  0  0  0  0  0  0
  -37.6920  161.1400  -11.0040 C   0  0  0  0  0  0  0  0  0  0  0  0
  -37.0530  160.4340  -10.0050 C   0  0  0  0  0  0  0  0  0  0  0  0
  -36.6870  159.0140  -10.1370 C   0  0  0  0  0  0  0  0  0  0  0  0
  -37.1020  158.2460  -11.2330 C   0  0  0  0  0  0  0  0  0  0  0  0
  -36.7520  156.9020  -11.3400 C   0  0  0  0  0  0  0  0  0  0  0  0
  -35.9820  156.3450  -10.3380 C   0  0  0  0  0  0  0  0  0  0  0  0
  -35.5480  157.0330   -9.2610 N   0  0  0  0  0  0  0  0  0  0  0  0
  -35.9040  158.3420   -9.1960 C   0  0  0  0  0  0  0  0  0  0  0  0
  -36.7130  161.0190   -8.8350 N   0  0  0  0  0  0  0  0  0  0  0  0
  -38.2054  166.4752   -6.9965 H   0  0  0  0  0  0  0  0  0  0  0  0
  -37.3264  165.2866   -8.0169 H   0  0  0  0  0  0  0  0  0  0  0  0
  -39.1225  165.3157   -8.0169 H   0  0  0  0  0  0  0  0  0  0  0  0
  -39.6141  165.6806   -5.1080 H   0  0  0  0  0  0  0  0  0  0  0  0
  -39.7385  164.0839   -3.2093 H   0  0  0  0  0  0  0  0  0  0  0  0
  -38.0820  162.1700   -2.1160 H   0  0  0  0  0  0  0  0  0  0  0  0
  -40.2807  161.5330   -0.7381 H   0  0  0  0  0  0  0  0  0  0  0  0
  -40.4182  160.4727    1.5121 H   0  0  0  0  0  0  0  0  0  0  0  0
  -39.7810  158.8208    3.0094 H   0  0  0  0  0  0  0  0  0  0  0  0
  -39.9316  157.1751    2.1720 H   0  0  0  0  0  0  0  0  0  0  0  0
  -39.0086  156.0430    3.9094 H   0  0  0  0  0  0  0  0  0  0  0  0
  -37.9641  155.6164    2.4611 H   0  0  0  0  0  0  0  0  0  0  0  0
  -37.2052  155.9859    5.3419 H   0  0  0  0  0  0  0  0  0  0  0  0
  -36.6058  154.8196    4.0792 H   0  0  0  0  0  0  0  0  0  0  0  0
  -34.8323  156.3781    5.9497 H   0  0  0  0  0  0  0  0  0  0  0  0
  -34.3180  155.2344    4.6636 H   0  0  0  0  0  0  0  0  0  0  0  0
  -33.7023  156.9218    4.6636 H   0  0  0  0  0  0  0  0  0  0  0  0
  -35.8551  158.3646    5.3225 H   0  0  0  0  0  0  0  0  0  0  0  0
  -35.3708  158.6791    3.5751 H   0  0  0  0  0  0  0  0  0  0  0  0
  -38.0902  158.5052    4.8160 H   0  0  0  0  0  0  0  0  0  0  0  0
  -37.4472  159.5348    3.4614 H   0  0  0  0  0  0  0  0  0  0  0  0
  -38.0888  157.1213    0.0800 H   0  0  0  0  0  0  0  0  0  0  0  0
  -37.9552  158.1780   -2.1718 H   0  0  0  0  0  0  0  0  0  0  0  0
  -37.0048  161.4423   -5.2447 H   0  0  0  0  0  0  0  0  0  0  0  0
  -35.7480  163.1790   -7.4320 H   0  0  0  0  0  0  0  0  0  0  0  0
  -38.4739  163.0536  -11.5003 H   0  0  0  0  0  0  0  0  0  0  0  0
  -37.9652  160.6756  -11.9630 H   0  0  0  0  0  0  0  0  0  0  0  0
  -37.7131  158.7112  -12.0204 H   0  0  0  0  0  0  0  0  0  0  0  0
  -37.0803  156.3000  -12.2001 H   0  0  0  0  0  0  0  0  0  0  0  0
  -35.7075  155.2831  -10.4222 H   0  0  0  0  0  0  0  0  0  0  0  0
  -35.5463  158.9202   -8.3313 H   0  0  0  0  0  0  0  0  0  0  0  0
  1  2  1  0
  2  3  1  0
  3  4  2  0
  4  5  1  0
  5  6  1  0
  6  7  1  0
  7  8  2  0
  7  9  1  0
  9 10  1  0
 10 11  2  0
 11 12  1  0
 12 13  1  0
 13 14  1  0
 14 15  1  0
 15 16  1  0
 16 17  1  0
 17 18  1  0
 17 19  1  0
 19 20  1  0
 12 21  2  0
 21 22  1  0
  5 23  2  0
 23 24  1  0
 24 25  1  0
 25 26  1  0
 26 27  2  0
 27 28  1  0
 28 29  2  0
 29 30  1  0
 30 31  1  0
 31 32  1  0
 32 33  2  0
 33 34  1  0
 34 35  2  0
 35 36  1  0
 30 37  2  0
 24  2  2  0
 37 26  1  0
 22  9  2  0
 36 31  2  0
 20 14  1  0
  1 38  1  0
  1 39  1  0
  1 40  1  0
  3 41  1  0
  4 42  1  0
  6 43  1  0
 10 44  1  0
 11 45  1  0
 13 46  1  0
 13 47  1  0
 15 48  1  0
 15 49  1  0
 16 50  1  0
 16 51  1  0
 18 52  1  0
 18 53  1  0
 18 54  1  0
 19 55  1  0
 19 56  1  0
 20 57  1  0
 20 58  1  0
 21 59  1  0
 22 60  1  0
 23 61  1  0
 25 62  1  0
 28 63  1  0
 29 64  1  0
 32 65  1  0
 33 66  1  0
 34 67  1  0
 36 68  1  0
M  END
>  <meeko>  (9) 
{"is_sidechain": false}

>  <vina_affinity_kcal_mol>  (9) 
-9.838

>  <pose_rank>  (9) 
9

$$$$

     RDKit          3D

 68 72  0  0  0  0  0  0  0  0999 V2000
  -36.5170  158.9510    5.2560 C   0  0  0  0  0  0  0  0  0  0  0  0
  -36.8670  157.4860    5.2230 C   0  0  0  0  0  0  0  0  0  0  0  0
  -36.7730  156.7490    6.4130 C   0  0  0  0  0  0  0  0  0  0  0  0
  -37.1050  155.3970    6.4380 C   0  0  0  0  0  0  0  0  0  0  0  0
  -37.5240  154.7490    5.2750 C   0  0  0  0  0  0  0  0  0  0  0  0
  -37.8440  153.3790    5.3910 N   0  0  0  0  0  0  0  0  0  0  0  0
  -36.9660  152.3140    5.4630 C   0  0  0  0  0  0  0  0  0  0  0  0
  -35.7470  152.3660    5.5670 O   0  0  0  0  0  0  0  0  0  0  0  0
  -37.6150  150.9720    5.4740 C   0  0  0  0  0  0  0  0  0  0  0  0
  -39.0070  150.8300    5.4650 C   0  0  0  0  0  0  0  0  0  0  0  0
  -39.5780  149.5540    5.4700 C   0  0  0  0  0  0  0  0  0  0  0  0
  -38.7700  148.4060    5.4820 C   0  0  0  0  0  0  0  0  0  0  0  0
  -39.3920  147.0230    5.4830 C   0  0  0  0  0  0  0  0  0  0  0  0
  -40.1510  146.6430    4.2950 N   0  0  0  0  0  0  0  0  0  0  0  0
  -41.1190  145.5560    4.4910 C   0  0  0  0  0  0  0  0  0  0  0  0
  -41.6590  144.9260    3.1760 C   0  0  0  0  0  0  0  0  0  0  0  0
  -41.6390  145.8640    2.0490 N   0  0  0  0  0  0  0  0  0  0  0  0
  -42.2240  145.2890    0.8450 C   0  0  0  0  0  0  0  0  0  0  0  0
  -40.2700  146.3560    1.8060 C   0  0  0  0  0  0  0  0  0  0  0  0
  -39.3720  146.4680    3.0710 C   0  0  0  0  0  0  0  0  0  0  0  0
  -37.3760  148.5610    5.4650 C   0  0  0  0  0  0  0  0  0  0  0  0
  -36.8010  149.8350    5.4580 C   0  0  0  0  0  0  0  0  0  0  0  0
  -37.6260  155.4850    4.0900 C   0  0  0  0  0  0  0  0  0  0  0  0
  -37.2910  156.8520    4.0320 C   0  0  0  0  0  0  0  0  0  0  0  0
  -37.4390  157.6140    2.8620 N   0  0  0  0  0  0  0  0  0  0  0  0
  -38.5210  158.2150    2.2250 C   0  0  0  0  0  0  0  0  0  0  0  0
  -39.6840  158.1240    2.8910 N   0  0  0  0  0  0  0  0  0  0  0  0
  -40.7670  158.6630    2.3070 C   0  0  0  0  0  0  0  0  0  0  0  0
  -40.7420  159.2720    1.0780 C   0  0  0  0  0  0  0  0  0  0  0  0
  -39.5160  159.3110    0.4460 C   0  0  0  0  0  0  0  0  0  0  0  0
  -39.3150  159.9280   -0.8750 C   0  0  0  0  0  0  0  0  0  0  0  0
  -38.8430  159.1890   -1.9670 C   0  0  0  0  0  0  0  0  0  0  0  0
  -38.6520  159.7880   -3.2100 C   0  0  0  0  0  0  0  0  0  0  0  0
  -38.9430  161.1330   -3.3390 C   0  0  0  0  0  0  0  0  0  0  0  0
  -39.4050  161.8960   -2.3270 N   0  0  0  0  0  0  0  0  0  0  0  0
  -39.5840  161.2740   -1.1330 C   0  0  0  0  0  0  0  0  0  0  0  0
  -38.4110  158.7870    1.0200 N   0  0  0  0  0  0  0  0  0  0  0  0
  -36.4371  159.2855    6.3009 H   0  0  0  0  0  0  0  0  0  0  0  0
  -35.5556  159.1099    4.7456 H   0  0  0  0  0  0  0  0  0  0  0  0
  -37.3027  159.5273    4.7456 H   0  0  0  0  0  0  0  0  0  0  0  0
  -36.4338  157.2439    7.3350 H   0  0  0  0  0  0  0  0  0  0  0  0
  -37.0366  154.8354    7.3814 H   0  0  0  0  0  0  0  0  0  0  0  0
  -38.8240  153.1690    5.5250 H   0  0  0  0  0  0  0  0  0  0  0  0
  -39.6513  151.7215    5.4540 H   0  0  0  0  0  0  0  0  0  0  0  0
  -40.6729  149.4482    5.4645 H   0  0  0  0  0  0  0  0  0  0  0  0
  -38.5791  146.2923    5.6066 H   0  0  0  0  0  0  0  0  0  0  0  0
  -40.1263  147.0376    6.3019 H   0  0  0  0  0  0  0  0  0  0  0  0
  -40.6306  144.7629    5.0762 H   0  0  0  0  0  0  0  0  0  0  0  0
  -41.9857  145.9987    5.0037 H   0  0  0  0  0  0  0  0  0  0  0  0
  -41.0360  144.0561    2.9209 H   0  0  0  0  0  0  0  0  0  0  0  0
  -42.7064  144.6391    3.3508 H   0  0  0  0  0  0  0  0  0  0  0  0
  -42.9825  144.5435    1.1259 H   0  0  0  0  0  0  0  0  0  0  0  0
  -42.6952  146.0852    0.2500 H   0  0  0  0  0  0  0  0  0  0  0  0
  -41.4360  144.8041    0.2500 H   0  0  0  0  0  0  0  0  0  0  0  0
  -39.7809  145.6672    1.1015 H   0  0  0  0  0  0  0  0  0  0  0  0
  -40.3780  147.3792    1.4169 H   0  0  0  0  0  0  0  0  0  0  0  0
  -38.7737  145.5494    3.1616 H   0  0  0  0  0  0  0  0  0  0  0  0
  -38.7334  147.3556    2.9508 H   0  0  0  0  0  0  0  0  0  0  0  0
  -36.7291  147.6714    5.4571 H   0  0  0  0  0  0  0  0  0  0  0  0
  -35.7065  149.9434    5.4399 H   0  0  0  0  0  0  0  0  0  0  0  0
  -37.9779  154.9820    3.1772 H   0  0  0  0  0  0  0  0  0  0  0  0
  -36.6310  157.6980    2.2640 H   0  0  0  0  0  0  0  0  0  0  0  0
  -41.7261  158.6133    2.8434 H   0  0  0  0  0  0  0  0  0  0  0  0
  -41.6458  159.7037    0.6233 H   0  0  0  0  0  0  0  0  0  0  0  0
  -38.6197  158.1193   -1.8412 H   0  0  0  0  0  0  0  0  0  0  0  0
  -38.2795  159.2062   -4.0660 H   0  0  0  0  0  0  0  0  0  0  0  0
  -38.7896  161.6068   -4.3198 H   0  0  0  0  0  0  0  0  0  0  0  0
  -39.9726  161.8798   -0.3012 H   0  0  0  0  0  0  0  0  0  0  0  0
  1  2  1  0
  2  3  1  0
  3  4  2  0
  4  5  1  0
  5  6  1  0
  6  7  1  0
  7  8  2  0
  7  9  1  0
  9 10  1  0
 10 11  2  0
 11 12  1  0
 12 13  1  0
 13 14  1  0
 14 15  1  0
 15 16  1  0
 16 17  1  0
 17 18  1  0
 17 19  1  0
 19 20  1  0
 12 21  2  0
 21 22  1  0
  5 23  2  0
 23 24  1  0
 24 25  1  0
 25 26  1  0
 26 27  2  0
 27 28  1  0
 28 29  2  0
 29 30  1  0
 30 31  1  0
 31 32  1  0
 32 33  2  0
 33 34  1  0
 34 35  2  0
 35 36  1  0
 30 37  2  0
 24  2  2  0
 37 26  1  0
 22  9  2  0
 36 31  2  0
 20 14  1  0
  1 38  1  0
  1 39  1  0
  1 40  1  0
  3 41  1  0
  4 42  1  0
  6 43  1  0
 10 44  1  0
 11 45  1  0
 13 46  1  0
 13 47  1  0
 15 48  1  0
 15 49  1  0
 16 50  1  0
 16 51  1  0
 18 52  1  0
 18 53  1  0
 18 54  1  0
 19 55  1  0
 19 56  1  0
 20 57  1  0
 20 58  1  0
 21 59  1  0
 22 60  1  0
 23 61  1  0
 25 62  1  0
 28 63  1  0
 29 64  1  0
 32 65  1  0
 33 66  1  0
 34 67  1  0
 36 68  1  0
M  END
>  <meeko>  (10) 
{"is_sidechain": false}

>  <vina_affinity_kcal_mol>  (10) 
-9.741

>  <pose_rank>  (10) 
10

$$$$
