
     RDKit          3D

 68 72  0  0  0  0  0  0  0  0999 V2000
   -4.9312   -2.8556    3.9913 C   0  0  0  0  0  0  0  0  0  0  0  0
   -3.6889   -2.5899    3.1820 C   0  0  0  0  0  0  0  0  0  0  0  0
   -2.5175   -3.2917    3.5124 C   0  0  0  0  0  0  0  0  0  0  0  0
   -1.3321   -3.0879    2.8054 C   0  0  0  0  0  0  0  0  0  0  0  0
   -1.2967   -2.1805    1.7544 C   0  0  0  0  0  0  0  0  0  0  0  0
   -0.1429   -1.9030    0.9900 N   0  0  0  0  0  0  0  0  0  0  0  0
    1.0948   -2.5125    1.0818 C   0  0  0  0  0  0  0  0  0  0  0  0
    1.3995   -3.4578    1.7992 O   0  0  0  0  0  0  0  0  0  0  0  0
    2.1327   -1.9596    0.1651 C   0  0  0  0  0  0  0  0  0  0  0  0
    2.2007   -0.5939   -0.1348 C   0  0  0  0  0  0  0  0  0  0  0  0
    3.1913   -0.1187   -0.9983 C   0  0  0  0  0  0  0  0  0  0  0  0
    4.1357   -0.9936   -1.5582 C   0  0  0  0  0  0  0  0  0  0  0  0
    5.2003   -0.4788   -2.5079 C   0  0  0  0  0  0  0  0  0  0  0  0
    5.9357    0.6822   -1.9848 N   0  0  0  0  0  0  0  0  0  0  0  0
    6.6886    1.3383   -3.0762 C   0  0  0  0  0  0  0  0  0  0  0  0
    7.8735    2.1782   -2.5571 C   0  0  0  0  0  0  0  0  0  0  0  0
    8.9107    1.3428   -1.9181 N   0  0  0  0  0  0  0  0  0  0  0  0
    9.7290    2.1474   -1.0150 C   0  0  0  0  0  0  0  0  0  0  0  0
    8.3189    0.1761   -1.2328 C   0  0  0  0  0  0  0  0  0  0  0  0
    6.8277    0.3344   -0.8561 C   0  0  0  0  0  0  0  0  0  0  0  0
    4.0647   -2.3586   -1.2452 C   0  0  0  0  0  0  0  0  0  0  0  0
    3.0753   -2.8371   -0.3826 C   0  0  0  0  0  0  0  0  0  0  0  0
   -2.4665   -1.4775    1.4248 C   0  0  0  0  0  0  0  0  0  0  0  0
   -3.6766   -1.6641    2.1140 C   0  0  0  0  0  0  0  0  0  0  0  0
   -4.8431   -0.9537    1.7914 N   0  0  0  0  0  0  0  0  0  0  0  0
   -5.1632    0.0402    0.8710 C   0  0  0  0  0  0  0  0  0  0  0  0
   -4.2505    0.5895    0.0598 N   0  0  0  0  0  0  0  0  0  0  0  0
   -4.6722    1.5450   -0.7841 C   0  0  0  0  0  0  0  0  0  0  0  0
   -5.9710    1.9819   -0.8477 C   0  0  0  0  0  0  0  0  0  0  0  0
   -6.8572    1.3774    0.0194 C   0  0  0  0  0  0  0  0  0  0  0  0
   -8.2870    1.7273    0.0821 C   0  0  0  0  0  0  0  0  0  0  0  0
   -8.7801    3.0055   -0.2231 C   0  0  0  0  0  0  0  0  0  0  0  0
  -10.1471    3.2778   -0.1494 C   0  0  0  0  0  0  0  0  0  0  0  0
  -11.0013    2.2596    0.2326 C   0  0  0  0  0  0  0  0  0  0  0  0
  -10.5836    1.0171    0.5414 N   0  0  0  0  0  0  0  0  0  0  0  0
   -9.2472    0.7867    0.4644 C   0  0  0  0  0  0  0  0  0  0  0  0
   -6.4562    0.4057    0.8707 N   0  0  0  0  0  0  0  0  0  0  0  0
   -5.7218   -3.2594    3.3506 H   0  0  0  0  0  0  0  0  0  0  0  0
   -4.7478   -3.5860    4.7867 H   0  0  0  0  0  0  0  0  0  0  0  0
   -5.2785   -1.9335    4.4683 H   0  0  0  0  0  0  0  0  0  0  0  0
   -2.5155   -4.0076    4.3320 H   0  0  0  0  0  0  0  0  0  0  0  0
   -0.4547   -3.6512    3.1060 H   0  0  0  0  0  0  0  0  0  0  0  0
   -0.2676   -1.2220    0.2524 H   0  0  0  0  0  0  0  0  0  0  0  0
    1.5148    0.1173    0.3168 H   0  0  0  0  0  0  0  0  0  0  0  0
    3.2434    0.9457   -1.2220 H   0  0  0  0  0  0  0  0  0  0  0  0
    4.6744   -0.2008   -3.4315 H   0  0  0  0  0  0  0  0  0  0  0  0
    5.8980   -1.2837   -2.7747 H   0  0  0  0  0  0  0  0  0  0  0  0
    7.0770    0.5983   -3.7899 H   0  0  0  0  0  0  0  0  0  0  0  0
    6.0027    1.9898   -3.6303 H   0  0  0  0  0  0  0  0  0  0  0  0
    8.3263    2.7186   -3.3965 H   0  0  0  0  0  0  0  0  0  0  0  0
    7.4847    2.9332   -1.8598 H   0  0  0  0  0  0  0  0  0  0  0  0
   10.1743    2.9938   -1.5498 H   0  0  0  0  0  0  0  0  0  0  0  0
   10.5609    1.5539   -0.6199 H   0  0  0  0  0  0  0  0  0  0  0  0
    9.1512    2.5372   -0.1692 H   0  0  0  0  0  0  0  0  0  0  0  0
    8.8943   -0.0963   -0.3391 H   0  0  0  0  0  0  0  0  0  0  0  0
    8.4106   -0.6817   -1.9118 H   0  0  0  0  0  0  0  0  0  0  0  0
    6.7459    1.1438   -0.1187 H   0  0  0  0  0  0  0  0  0  0  0  0
    6.4950   -0.5687   -0.3313 H   0  0  0  0  0  0  0  0  0  0  0  0
    4.7835   -3.0596   -1.6639 H   0  0  0  0  0  0  0  0  0  0  0  0
    3.0385   -3.8973   -0.1389 H   0  0  0  0  0  0  0  0  0  0  0  0
   -2.4272   -0.7717    0.6023 H   0  0  0  0  0  0  0  0  0  0  0  0
   -5.6842   -1.2018    2.2894 H   0  0  0  0  0  0  0  0  0  0  0  0
   -3.9069    1.9617   -1.4322 H   0  0  0  0  0  0  0  0  0  0  0  0
   -6.2639    2.7444   -1.5558 H   0  0  0  0  0  0  0  0  0  0  0  0
   -8.1084    3.8127   -0.5031 H   0  0  0  0  0  0  0  0  0  0  0  0
  -10.5339    4.2645   -0.3791 H   0  0  0  0  0  0  0  0  0  0  0  0
  -12.0728    2.4216    0.3058 H   0  0  0  0  0  0  0  0  0  0  0  0
   -8.9591   -0.2298    0.7253 H   0  0  0  0  0  0  0  0  0  0  0  0
  1  2  1  0
  2  3  1  0
  3  4  2  0
  4  5  1  0
  5  6  1  0
  6  7  1  0
  7  8  2  0
  7  9  1  0
  9 10  1  0
 10 11  2  0
 11 12  1  0
 12 13  1  0
 13 14  1  0
 14 15  1  0
 15 16  1  0
 16 17  1  0
 17 18  1  0
 17 19  1  0
 19 20  1  0
 12 21  2  0
 21 22  1  0
  5 23  2  0
 23 24  1  0
 24 25  1  0
 25 26  1  0
 26 27  2  0
 27 28  1  0
 28 29  2  0
 29 30  1  0
 30 31  1  0
 31 32  1  0
 32 33  2  0
 33 34  1  0
 34 35  2  0
 35 36  1  0
 30 37  2  0
 24  2  2  0
 37 26  1  0
 22  9  2  0
 36 31  2  0
 20 14  1  0
  1 38  1  0
  1 39  1  0
  1 40  1  0
  3 41  1  0
  4 42  1  0
  6 43  1  0
 10 44  1  0
 11 45  1  0
 13 46  1  0
 13 47  1  0
 15 48  1  0
 15 49  1  0
 16 50  1  0
 16 51  1  0
 18 52  1  0
 18 53  1  0
 18 54  1  0
 19 55  1  0
 19 56  1  0
 20 57  1  0
 20 58  1  0
 21 59  1  0
 22 60  1  0
 23 61  1  0
 25 62  1  0
 28 63  1  0
 29 64  1  0
 32 65  1  0
 33 66  1  0
 34 67  1  0
 36 68  1  0
M  END
$$$$
