
     RDKit          3D

 68 72  0  0  0  0  0  0  0  0999 V2000
  -42.5810  160.8580    0.0100 C   0  0  0  0  0  0  0  0  0  0  0  0
  -41.6730  160.0290    0.8810 C   0  0  0  0  0  0  0  0  0  0  0  0
  -42.2540  159.2520    1.8980 C   0  0  0  0  0  0  0  0  0  0  0  0
  -41.4680  158.4660    2.7410 C   0  0  0  0  0  0  0  0  0  0  0  0
  -40.0890  158.4410    2.5820 C   0  0  0  0  0  0  0  0  0  0  0  0
  -39.2150  157.6850    3.3940 N   0  0  0  0  0  0  0  0  0  0  0  0
  -37.8600  157.4810    3.2100 C   0  0  0  0  0  0  0  0  0  0  0  0
  -37.1510  157.9780    2.3430 O   0  0  0  0  0  0  0  0  0  0  0  0
  -37.2200  156.5880    4.2170 C   0  0  0  0  0  0  0  0  0  0  0  0
  -35.8290  156.5030    4.3500 C   0  0  0  0  0  0  0  0  0  0  0  0
  -35.2710  155.6550    5.3090 C   0  0  0  0  0  0  0  0  0  0  0  0
  -36.0900  154.8950    6.1590 C   0  0  0  0  0  0  0  0  0  0  0  0
  -35.4820  153.9610    7.1890 C   0  0  0  0  0  0  0  0  0  0  0  0
  -36.0420  152.6020    7.1450 N   0  0  0  0  0  0  0  0  0  0  0  0
  -35.3220  151.7270    8.0970 C   0  0  0  0  0  0  0  0  0  0  0  0
  -35.4480  150.2330    7.7400 C   0  0  0  0  0  0  0  0  0  0  0  0
  -34.7900  149.9090    6.4570 N   0  0  0  0  0  0  0  0  0  0  0  0
  -35.3350  148.6740    5.9010 C   0  0  0  0  0  0  0  0  0  0  0  0
  -34.8850  151.0320    5.5030 C   0  0  0  0  0  0  0  0  0  0  0  0
  -36.0370  152.0240    5.7820 C   0  0  0  0  0  0  0  0  0  0  0  0
  -37.4820  154.9930    6.0250 C   0  0  0  0  0  0  0  0  0  0  0  0
  -38.0430  155.8390    5.0660 C   0  0  0  0  0  0  0  0  0  0  0  0
  -39.5080  159.2190    1.5680 C   0  0  0  0  0  0  0  0  0  0  0  0
  -40.2710  160.0160    0.6990 C   0  0  0  0  0  0  0  0  0  0  0  0
  -39.6890  160.8000   -0.3080 N   0  0  0  0  0  0  0  0  0  0  0  0
  -39.4100  160.6130   -1.6590 C   0  0  0  0  0  0  0  0  0  0  0  0
  -39.3530  159.4000   -2.2190 N   0  0  0  0  0  0  0  0  0  0  0  0
  -39.0690  159.3380   -3.5300 C   0  0  0  0  0  0  0  0  0  0  0  0
  -38.8340  160.4440   -4.3080 C   0  0  0  0  0  0  0  0  0  0  0  0
  -38.9040  161.6630   -3.6650 C   0  0  0  0  0  0  0  0  0  0  0  0
  -38.6780  162.9480   -4.3500 C   0  0  0  0  0  0  0  0  0  0  0  0
  -38.3160  163.0450   -5.7020 C   0  0  0  0  0  0  0  0  0  0  0  0
  -38.1180  164.2920   -6.2990 C   0  0  0  0  0  0  0  0  0  0  0  0
  -38.2860  165.4250   -5.5250 C   0  0  0  0  0  0  0  0  0  0  0  0
  -38.6280  165.3920   -4.2230 N   0  0  0  0  0  0  0  0  0  0  0  0
  -38.8070  164.1620   -3.6720 C   0  0  0  0  0  0  0  0  0  0  0  0
  -39.1970  161.7470   -2.3470 N   0  0  0  0  0  0  0  0  0  0  0  0
  -43.2447  161.4639    0.6443 H   0  0  0  0  0  0  0  0  0  0  0  0
  -41.9750  161.5209   -0.6251 H   0  0  0  0  0  0  0  0  0  0  0  0
  -43.1862  160.1943   -0.6251 H   0  0  0  0  0  0  0  0  0  0  0  0
  -43.3458  159.2638    2.0313 H   0  0  0  0  0  0  0  0  0  0  0  0
  -41.9411  157.8657    3.5321 H   0  0  0  0  0  0  0  0  0  0  0  0
  -39.6280  157.3070    4.2370 H   0  0  0  0  0  0  0  0  0  0  0  0
  -35.1761  157.1037    3.6997 H   0  0  0  0  0  0  0  0  0  0  0  0
  -34.1772  155.5817    5.3994 H   0  0  0  0  0  0  0  0  0  0  0  0
  -34.3990  153.8983    7.0071 H   0  0  0  0  0  0  0  0  0  0  0  0
  -35.7126  154.3762    8.1812 H   0  0  0  0  0  0  0  0  0  0  0  0
  -34.2569  152.0019    8.0919 H   0  0  0  0  0  0  0  0  0  0  0  0
  -35.7734  151.8717    9.0896 H   0  0  0  0  0  0  0  0  0  0  0  0
  -34.9810  149.6373    8.5382 H   0  0  0  0  0  0  0  0  0  0  0  0
  -36.5180  149.9985    7.6398 H   0  0  0  0  0  0  0  0  0  0  0  0
  -35.6313  148.0025    6.7203 H   0  0  0  0  0  0  0  0  0  0  0  0
  -36.2138  148.9071    5.2819 H   0  0  0  0  0  0  0  0  0  0  0  0
  -34.5705  148.1819    5.2819 H   0  0  0  0  0  0  0  0  0  0  0  0
  -33.9375  151.5899    5.5358 H   0  0  0  0  0  0  0  0  0  0  0  0
  -35.0922  150.5858    4.5192 H   0  0  0  0  0  0  0  0  0  0  0  0
  -35.9594  152.8504    5.0601 H   0  0  0  0  0  0  0  0  0  0  0  0
  -36.9703  151.4498    5.6856 H   0  0  0  0  0  0  0  0  0  0  0  0
  -38.1369  154.3994    6.6798 H   0  0  0  0  0  0  0  0  0  0  0  0
  -39.1366  155.9171    4.9774 H   0  0  0  0  0  0  0  0  0  0  0  0
  -38.4145  159.2038    1.4497 H   0  0  0  0  0  0  0  0  0  0  0  0
  -39.4190  161.7400   -0.0600 H   0  0  0  0  0  0  0  0  0  0  0  0
  -39.0222  158.3474   -4.0060 H   0  0  0  0  0  0  0  0  0  0  0  0
  -38.6035  160.3635   -5.3806 H   0  0  0  0  0  0  0  0  0  0  0  0
  -38.1868  162.1295   -6.2980 H   0  0  0  0  0  0  0  0  0  0  0  0
  -37.8353  164.3707   -7.3591 H   0  0  0  0  0  0  0  0  0  0  0  0
  -38.1321  166.4061   -5.9980 H   0  0  0  0  0  0  0  0  0  0  0  0
  -39.0751  164.1197   -2.6060 H   0  0  0  0  0  0  0  0  0  0  0  0
  1  2  1  0
  2  3  1  0
  3  4  2  0
  4  5  1  0
  5  6  1  0
  6  7  1  0
  7  8  2  0
  7  9  1  0
  9 10  1  0
 10 11  2  0
 11 12  1  0
 12 13  1  0
 13 14  1  0
 14 15  1  0
 15 16  1  0
 16 17  1  0
 17 18  1  0
 17 19  1  0
 19 20  1  0
 12 21  2  0
 21 22  1  0
  5 23  2  0
 23 24  1  0
 24 25  1  0
 25 26  1  0
 26 27  2  0
 27 28  1  0
 28 29  2  0
 29 30  1  0
 30 31  1  0
 31 32  1  0
 32 33  2  0
 33 34  1  0
 34 35  2  0
 35 36  1  0
 30 37  2  0
 24  2  2  0
 37 26  1  0
 22  9  2  0
 36 31  2  0
 20 14  1  0
  1 38  1  0
  1 39  1  0
  1 40  1  0
  3 41  1  0
  4 42  1  0
  6 43  1  0
 10 44  1  0
 11 45  1  0
 13 46  1  0
 13 47  1  0
 15 48  1  0
 15 49  1  0
 16 50  1  0
 16 51  1  0
 18 52  1  0
 18 53  1  0
 18 54  1  0
 19 55  1  0
 19 56  1  0
 20 57  1  0
 20 58  1  0
 21 59  1  0
 22 60  1  0
 23 61  1  0
 25 62  1  0
 28 63  1  0
 29 64  1  0
 32 65  1  0
 33 66  1  0
 34 67  1  0
 36 68  1  0
M  END
>  <meeko>  (1) 
{"is_sidechain": false}

>  <vina_affinity_kcal_mol>  (1) 
-12.145

>  <pose_rank>  (1) 
1

$$$$

     RDKit          3D

 68 72  0  0  0  0  0  0  0  0999 V2000
  -41.5790  158.0400    3.1910 C   0  0  0  0  0  0  0  0  0  0  0  0
  -41.0830  158.7000    1.9320 C   0  0  0  0  0  0  0  0  0  0  0  0
  -41.9210  159.6310    1.2940 C   0  0  0  0  0  0  0  0  0  0  0  0
  -41.5240  160.2740    0.1220 C   0  0  0  0  0  0  0  0  0  0  0  0
  -40.2800  160.0010   -0.4320 C   0  0  0  0  0  0  0  0  0  0  0  0
  -39.7980  160.5960   -1.6180 N   0  0  0  0  0  0  0  0  0  0  0  0
  -39.3090  161.8790   -1.7790 C   0  0  0  0  0  0  0  0  0  0  0  0
  -39.1370  162.7180   -0.9020 O   0  0  0  0  0  0  0  0  0  0  0  0
  -38.9180  162.2290   -3.1750 C   0  0  0  0  0  0  0  0  0  0  0  0
  -38.6490  161.2450   -4.1340 C   0  0  0  0  0  0  0  0  0  0  0  0
  -38.2880  161.6180   -5.4310 C   0  0  0  0  0  0  0  0  0  0  0  0
  -38.2090  162.9720   -5.7940 C   0  0  0  0  0  0  0  0  0  0  0  0
  -37.8010  163.3750   -7.1980 C   0  0  0  0  0  0  0  0  0  0  0  0
  -38.0010  162.3090   -8.1910 N   0  0  0  0  0  0  0  0  0  0  0  0
  -36.7430  161.5570   -8.3870 C   0  0  0  0  0  0  0  0  0  0  0  0
  -36.6950  160.8240   -9.7420 C   0  0  0  0  0  0  0  0  0  0  0  0
  -36.6780  161.7630  -10.8830 N   0  0  0  0  0  0  0  0  0  0  0  0
  -37.1390  161.0990  -12.0980 C   0  0  0  0  0  0  0  0  0  0  0  0
  -37.4610  162.9810  -10.5910 C   0  0  0  0  0  0  0  0  0  0  0  0
  -38.5240  162.8170   -9.4800 C   0  0  0  0  0  0  0  0  0  0  0  0
  -38.4890  163.9500   -4.8280 C   0  0  0  0  0  0  0  0  0  0  0  0
  -38.8490  163.5800   -3.5300 C   0  0  0  0  0  0  0  0  0  0  0  0
  -39.4420  159.0700    0.2030 C   0  0  0  0  0  0  0  0  0  0  0  0
  -39.8120  158.4100    1.3870 C   0  0  0  0  0  0  0  0  0  0  0  0
  -38.9780  157.4730    2.0160 N   0  0  0  0  0  0  0  0  0  0  0  0
  -38.1910  157.4750    3.1640 C   0  0  0  0  0  0  0  0  0  0  0  0
  -37.6650  158.5950    3.6730 N   0  0  0  0  0  0  0  0  0  0  0  0
  -36.9170  158.4770    4.7810 C   0  0  0  0  0  0  0  0  0  0  0  0
  -36.6650  157.2800    5.4030 C   0  0  0  0  0  0  0  0  0  0  0  0
  -37.2340  156.1650    4.8230 C   0  0  0  0  0  0  0  0  0  0  0  0
  -37.0640  154.8040    5.3600 C   0  0  0  0  0  0  0  0  0  0  0  0
  -36.2940  154.5170    6.4980 C   0  0  0  0  0  0  0  0  0  0  0  0
  -36.1720  153.2060    6.9630 C   0  0  0  0  0  0  0  0  0  0  0  0
  -36.8260  152.2010    6.2760 C   0  0  0  0  0  0  0  0  0  0  0  0
  -37.5730  152.4170    5.1760 N   0  0  0  0  0  0  0  0  0  0  0  0
  -37.6670  153.7030    4.7470 C   0  0  0  0  0  0  0  0  0  0  0  0
  -37.9980  156.2630    3.7110 N   0  0  0  0  0  0  0  0  0  0  0  0
  -41.1788  158.5726    4.0663 H   0  0  0  0  0  0  0  0  0  0  0  0
  -42.6783  158.0722    3.2133 H   0  0  0  0  0  0  0  0  0  0  0  0
  -41.2423  156.9930    3.2133 H   0  0  0  0  0  0  0  0  0  0  0  0
  -42.9069  159.8562    1.7267 H   0  0  0  0  0  0  0  0  0  0  0  0
  -42.1958  160.9971   -0.3635 H   0  0  0  0  0  0  0  0  0  0  0  0
  -39.7520  159.9810   -2.4210 H   0  0  0  0  0  0  0  0  0  0  0  0
  -38.7218  160.1804   -3.8668 H   0  0  0  0  0  0  0  0  0  0  0  0
  -38.0629  160.8415   -6.1769 H   0  0  0  0  0  0  0  0  0  0  0  0
  -38.3989  164.2482   -7.4981 H   0  0  0  0  0  0  0  0  0  0  0  0
  -36.7242  163.5984   -7.1726 H   0  0  0  0  0  0  0  0  0  0  0  0
  -35.9000  162.2619   -8.3378 H   0  0  0  0  0  0  0  0  0  0  0  0
  -36.6829  160.7964   -7.5947 H   0  0  0  0  0  0  0  0  0  0  0  0
  -35.7861  160.2055   -9.7784 H   0  0  0  0  0  0  0  0  0  0  0  0
  -37.6019  160.2071   -9.8251 H   0  0  0  0  0  0  0  0  0  0  0  0
  -37.7473  160.2229  -11.8288 H   0  0  0  0  0  0  0  0  0  0  0  0
  -37.7464  161.7990  -12.6905 H   0  0  0  0  0  0  0  0  0  0  0  0
  -36.2708  160.7746  -12.6905 H   0  0  0  0  0  0  0  0  0  0  0  0
  -36.7616  163.7716  -10.2815 H   0  0  0  0  0  0  0  0  0  0  0  0
  -38.0106  163.2244  -11.5123 H   0  0  0  0  0  0  0  0  0  0  0  0
  -38.9846  163.7994   -9.2992 H   0  0  0  0  0  0  0  0  0  0  0  0
  -39.2382  162.0634   -9.8433 H   0  0  0  0  0  0  0  0  0  0  0  0
  -38.4246  165.0153   -5.0945 H   0  0  0  0  0  0  0  0  0  0  0  0
  -39.0792  164.3547   -2.7838 H   0  0  0  0  0  0  0  0  0  0  0  0
  -38.4607  158.8495   -0.2425 H   0  0  0  0  0  0  0  0  0  0  0  0
  -38.9230  156.5560    1.6000 H   0  0  0  0  0  0  0  0  0  0  0  0
  -36.4821  159.3897    5.2143 H   0  0  0  0  0  0  0  0  0  0  0  0
  -36.0462  157.2135    6.3100 H   0  0  0  0  0  0  0  0  0  0  0  0
  -35.7816  155.3329    7.0288 H   0  0  0  0  0  0  0  0  0  0  0  0
  -35.5697  152.9786    7.8549 H   0  0  0  0  0  0  0  0  0  0  0  0
  -36.7316  151.1698    6.6471 H   0  0  0  0  0  0  0  0  0  0  0  0
  -38.2663  153.8923    3.8442 H   0  0  0  0  0  0  0  0  0  0  0  0
  1  2  1  0
  2  3  1  0
  3  4  2  0
  4  5  1  0
  5  6  1  0
  6  7  1  0
  7  8  2  0
  7  9  1  0
  9 10  1  0
 10 11  2  0
 11 12  1  0
 12 13  1  0
 13 14  1  0
 14 15  1  0
 15 16  1  0
 16 17  1  0
 17 18  1  0
 17 19  1  0
 19 20  1  0
 12 21  2  0
 21 22  1  0
  5 23  2  0
 23 24  1  0
 24 25  1  0
 25 26  1  0
 26 27  2  0
 27 28  1  0
 28 29  2  0
 29 30  1  0
 30 31  1  0
 31 32  1  0
 32 33  2  0
 33 34  1  0
 34 35  2  0
 35 36  1  0
 30 37  2  0
 24  2  2  0
 37 26  1  0
 22  9  2  0
 36 31  2  0
 20 14  1  0
  1 38  1  0
  1 39  1  0
  1 40  1  0
  3 41  1  0
  4 42  1  0
  6 43  1  0
 10 44  1  0
 11 45  1  0
 13 46  1  0
 13 47  1  0
 15 48  1  0
 15 49  1  0
 16 50  1  0
 16 51  1  0
 18 52  1  0
 18 53  1  0
 18 54  1  0
 19 55  1  0
 19 56  1  0
 20 57  1  0
 20 58  1  0
 21 59  1  0
 22 60  1  0
 23 61  1  0
 25 62  1  0
 28 63  1  0
 29 64  1  0
 32 65  1  0
 33 66  1  0
 34 67  1  0
 36 68  1  0
M  END
>  <meeko>  (2) 
{"is_sidechain": false}

>  <vina_affinity_kcal_mol>  (2) 
-11.586

>  <pose_rank>  (2) 
2

$$$$

     RDKit          3D

 68 72  0  0  0  0  0  0  0  0999 V2000
  -42.2920  160.7440   -0.2520 C   0  0  0  0  0  0  0  0  0  0  0  0
  -41.3710  159.8570    0.5440 C   0  0  0  0  0  0  0  0  0  0  0  0
  -41.8420  159.3260    1.7570 C   0  0  0  0  0  0  0  0  0  0  0  0
  -41.0370  158.5020    2.5430 C   0  0  0  0  0  0  0  0  0  0  0  0
  -39.7480  158.1920    2.1320 C   0  0  0  0  0  0  0  0  0  0  0  0
  -38.8600  157.3770    2.8660 N   0  0  0  0  0  0  0  0  0  0  0  0
  -37.8710  157.7840    3.7420 C   0  0  0  0  0  0  0  0  0  0  0  0
  -37.6280  158.9310    4.0990 O   0  0  0  0  0  0  0  0  0  0  0  0
  -37.0620  156.6780    4.3300 C   0  0  0  0  0  0  0  0  0  0  0  0
  -35.6650  156.7470    4.4090 C   0  0  0  0  0  0  0  0  0  0  0  0
  -34.9460  155.6890    4.9690 C   0  0  0  0  0  0  0  0  0  0  0  0
  -35.6080  154.5580    5.4730 C   0  0  0  0  0  0  0  0  0  0  0  0
  -34.8250  153.4020    6.0650 C   0  0  0  0  0  0  0  0  0  0  0  0
  -35.6770  152.2940    6.5230 N   0  0  0  0  0  0  0  0  0  0  0  0
  -35.0300  151.5910    7.6520 C   0  0  0  0  0  0  0  0  0  0  0  0
  -35.5470  150.1490    7.8260 C   0  0  0  0  0  0  0  0  0  0  0  0
  -35.1950  149.2880    6.6780 N   0  0  0  0  0  0  0  0  0  0  0  0
  -36.0880  148.1350    6.6110 C   0  0  0  0  0  0  0  0  0  0  0  0
  -35.1870  150.0510    5.4130 C   0  0  0  0  0  0  0  0  0  0  0  0
  -36.0240  151.3510    5.4360 C   0  0  0  0  0  0  0  0  0  0  0  0
  -37.0070  154.5010    5.3970 C   0  0  0  0  0  0  0  0  0  0  0  0
  -37.7290  155.5580    4.8360 C   0  0  0  0  0  0  0  0  0  0  0  0
  -39.2740  158.7250    0.9220 C   0  0  0  0  0  0  0  0  0  0  0  0
  -40.0620  159.5530    0.1040 C   0  0  0  0  0  0  0  0  0  0  0  0
  -39.5860  160.0920   -1.1000 N   0  0  0  0  0  0  0  0  0  0  0  0
  -39.2710  161.3730   -1.5440 C   0  0  0  0  0  0  0  0  0  0  0  0
  -39.2030  162.4240   -0.7180 N   0  0  0  0  0  0  0  0  0  0  0  0
  -38.8960  163.6140   -1.2590 C   0  0  0  0  0  0  0  0  0  0  0  0
  -38.6600  163.8010   -2.5980 C   0  0  0  0  0  0  0  0  0  0  0  0
  -38.7510  162.6770   -3.3920 C   0  0  0  0  0  0  0  0  0  0  0  0
  -38.5280  162.7000   -4.8480 C   0  0  0  0  0  0  0  0  0  0  0  0
  -38.3430  161.5410   -5.6160 C   0  0  0  0  0  0  0  0  0  0  0  0
  -38.1390  161.6240   -6.9950 C   0  0  0  0  0  0  0  0  0  0  0  0
  -38.1230  162.8750   -7.5830 C   0  0  0  0  0  0  0  0  0  0  0  0
  -38.2900  164.0210   -6.8950 N   0  0  0  0  0  0  0  0  0  0  0  0
  -38.4810  163.9040   -5.5550 C   0  0  0  0  0  0  0  0  0  0  0  0
  -39.0500  161.4670   -2.8670 N   0  0  0  0  0  0  0  0  0  0  0  0
  -42.9110  161.3401    0.4347 H   0  0  0  0  0  0  0  0  0  0  0  0
  -41.6958  161.4167   -0.8860 H   0  0  0  0  0  0  0  0  0  0  0  0
  -42.9419  160.1229   -0.8860 H   0  0  0  0  0  0  0  0  0  0  0  0
  -42.8623  159.5643    2.0919 H   0  0  0  0  0  0  0  0  0  0  0  0
  -41.4240  158.0973    3.4898 H   0  0  0  0  0  0  0  0  0  0  0  0
  -39.0180  156.3810    2.7800 H   0  0  0  0  0  0  0  0  0  0  0  0
  -35.1351  157.6335    4.0304 H   0  0  0  0  0  0  0  0  0  0  0  0
  -33.8483  155.7422    5.0158 H   0  0  0  0  0  0  0  0  0  0  0  0
  -34.1361  153.0183    5.2981 H   0  0  0  0  0  0  0  0  0  0  0  0
  -34.2920  153.7880    6.9465 H   0  0  0  0  0  0  0  0  0  0  0  0
  -33.9455  151.5572    7.4712 H   0  0  0  0  0  0  0  0  0  0  0  0
  -35.2705  152.1448    8.5715 H   0  0  0  0  0  0  0  0  0  0  0  0
  -35.1048  149.7217    8.7381 H   0  0  0  0  0  0  0  0  0  0  0  0
  -36.6441  150.1893    7.8942 H   0  0  0  0  0  0  0  0  0  0  0  0
  -36.3414  147.8078    7.6302 H   0  0  0  0  0  0  0  0  0  0  0  0
  -37.0078  148.4142    6.0762 H   0  0  0  0  0  0  0  0  0  0  0  0
  -35.5876  147.3143    6.0762 H   0  0  0  0  0  0  0  0  0  0  0  0
  -34.1455  150.3183    5.1809 H   0  0  0  0  0  0  0  0  0  0  0  0
  -35.6464  149.3996    4.6549 H   0  0  0  0  0  0  0  0  0  0  0  0
  -35.8798  151.8678    4.4757 H   0  0  0  0  0  0  0  0  0  0  0  0
  -37.0658  151.0452    5.6124 H   0  0  0  0  0  0  0  0  0  0  0  0
  -37.5396  153.6187    5.7814 H   0  0  0  0  0  0  0  0  0  0  0  0
  -38.8270  155.5087    4.7923 H   0  0  0  0  0  0  0  0  0  0  0  0
  -38.2488  158.4857    0.6030 H   0  0  0  0  0  0  0  0  0  0  0  0
  -39.3760  159.4430   -1.8420 H   0  0  0  0  0  0  0  0  0  0  0  0
  -38.8301  164.4867   -0.5926 H   0  0  0  0  0  0  0  0  0  0  0  0
  -38.4128  164.7891   -3.0134 H   0  0  0  0  0  0  0  0  0  0  0  0
  -38.3588  160.5559   -5.1267 H   0  0  0  0  0  0  0  0  0  0  0  0
  -37.9945  160.7159   -7.5987 H   0  0  0  0  0  0  0  0  0  0  0  0
  -37.9656  162.9379   -8.6699 H   0  0  0  0  0  0  0  0  0  0  0  0
  -38.6091  164.8329   -4.9799 H   0  0  0  0  0  0  0  0  0  0  0  0
  1  2  1  0
  2  3  1  0
  3  4  2  0
  4  5  1  0
  5  6  1  0
  6  7  1  0
  7  8  2  0
  7  9  1  0
  9 10  1  0
 10 11  2  0
 11 12  1  0
 12 13  1  0
 13 14  1  0
 14 15  1  0
 15 16  1  0
 16 17  1  0
 17 18  1  0
 17 19  1  0
 19 20  1  0
 12 21  2  0
 21 22  1  0
  5 23  2  0
 23 24  1  0
 24 25  1  0
 25 26  1  0
 26 27  2  0
 27 28  1  0
 28 29  2  0
 29 30  1  0
 30 31  1  0
 31 32  1  0
 32 33  2  0
 33 34  1  0
 34 35  2  0
 35 36  1  0
 30 37  2  0
 24  2  2  0
 37 26  1  0
 22  9  2  0
 36 31  2  0
 20 14  1  0
  1 38  1  0
  1 39  1  0
  1 40  1  0
  3 41  1  0
  4 42  1  0
  6 43  1  0
 10 44  1  0
 11 45  1  0
 13 46  1  0
 13 47  1  0
 15 48  1  0
 15 49  1  0
 16 50  1  0
 16 51  1  0
 18 52  1  0
 18 53  1  0
 18 54  1  0
 19 55  1  0
 19 56  1  0
 20 57  1  0
 20 58  1  0
 21 59  1  0
 22 60  1  0
 23 61  1  0
 25 62  1  0
 28 63  1  0
 29 64  1  0
 32 65  1  0
 33 66  1  0
 34 67  1  0
 36 68  1  0
M  END
>  <meeko>  (3) 
{"is_sidechain": false}

>  <vina_affinity_kcal_mol>  (3) 
-11.335

>  <pose_rank>  (3) 
3

$$$$

     RDKit          3D

 68 72  0  0  0  0  0  0  0  0999 V2000
  -41.5740  157.8380    3.1740 C   0  0  0  0  0  0  0  0  0  0  0  0
  -41.1070  158.6600    2.0020 C   0  0  0  0  0  0  0  0  0  0  0  0
  -42.0070  159.5760    1.4310 C   0  0  0  0  0  0  0  0  0  0  0  0
  -41.6390  160.3650    0.3410 C   0  0  0  0  0  0  0  0  0  0  0  0
  -40.3640  160.2540   -0.1980 C   0  0  0  0  0  0  0  0  0  0  0  0
  -39.9070  161.0020   -1.3040 N   0  0  0  0  0  0  0  0  0  0  0  0
  -39.3450  160.5210   -2.4720 C   0  0  0  0  0  0  0  0  0  0  0  0
  -39.2030  159.3460   -2.7930 O   0  0  0  0  0  0  0  0  0  0  0  0
  -38.9160  161.5720   -3.4390 C   0  0  0  0  0  0  0  0  0  0  0  0
  -39.0260  162.9360   -3.1420 C   0  0  0  0  0  0  0  0  0  0  0  0
  -38.6100  163.8870   -4.0770 C   0  0  0  0  0  0  0  0  0  0  0  0
  -38.0630  163.4930   -5.3080 C   0  0  0  0  0  0  0  0  0  0  0  0
  -37.6270  164.5270   -6.3280 C   0  0  0  0  0  0  0  0  0  0  0  0
  -38.2020  164.3070   -7.6640 N   0  0  0  0  0  0  0  0  0  0  0  0
  -37.3370  163.3950   -8.4430 C   0  0  0  0  0  0  0  0  0  0  0  0
  -37.5420  163.5390   -9.9650 C   0  0  0  0  0  0  0  0  0  0  0  0
  -37.1230  164.8670  -10.4600 N   0  0  0  0  0  0  0  0  0  0  0  0
  -37.7730  165.1650  -11.7330 C   0  0  0  0  0  0  0  0  0  0  0  0
  -37.3710  165.9200   -9.4550 C   0  0  0  0  0  0  0  0  0  0  0  0
  -38.4440  165.5690   -8.3990 C   0  0  0  0  0  0  0  0  0  0  0  0
  -37.9490  162.1250   -5.5930 C   0  0  0  0  0  0  0  0  0  0  0  0
  -38.3650  161.1710   -4.6610 C   0  0  0  0  0  0  0  0  0  0  0  0
  -39.4640  159.3370    0.3700 C   0  0  0  0  0  0  0  0  0  0  0  0
  -39.8030  158.5330    1.4710 C   0  0  0  0  0  0  0  0  0  0  0  0
  -38.9070  157.6110    2.0320 N   0  0  0  0  0  0  0  0  0  0  0  0
  -38.1380  157.5710    3.1910 C   0  0  0  0  0  0  0  0  0  0  0  0
  -37.5920  158.6680    3.7290 N   0  0  0  0  0  0  0  0  0  0  0  0
  -36.8630  158.5100    4.8460 C   0  0  0  0  0  0  0  0  0  0  0  0
  -36.6510  157.2950    5.4480 C   0  0  0  0  0  0  0  0  0  0  0  0
  -37.2380  156.2060    4.8380 C   0  0  0  0  0  0  0  0  0  0  0  0
  -37.1100  154.8310    5.3510 C   0  0  0  0  0  0  0  0  0  0  0  0
  -36.4220  154.5120    6.5320 C   0  0  0  0  0  0  0  0  0  0  0  0
  -36.3370  153.1890    6.9710 C   0  0  0  0  0  0  0  0  0  0  0  0
  -36.9450  152.2040    6.2150 C   0  0  0  0  0  0  0  0  0  0  0  0
  -37.6140  152.4520    5.0730 N   0  0  0  0  0  0  0  0  0  0  0  0
  -37.6740  153.7490    4.6710 C   0  0  0  0  0  0  0  0  0  0  0  0
  -37.9830  156.3440    3.7180 N   0  0  0  0  0  0  0  0  0  0  0  0
  -41.2890  158.3397    4.1105 H   0  0  0  0  0  0  0  0  0  0  0  0
  -42.6680  157.7306    3.1338 H   0  0  0  0  0  0  0  0  0  0  0  0
  -41.1062  156.8433    3.1338 H   0  0  0  0  0  0  0  0  0  0  0  0
  -43.0191  159.6725    1.8508 H   0  0  0  0  0  0  0  0  0  0  0  0
  -42.3590  161.0753   -0.0917 H   0  0  0  0  0  0  0  0  0  0  0  0
  -40.0730  161.9990   -1.2490 H   0  0  0  0  0  0  0  0  0  0  0  0
  -39.4390  163.2580   -2.1747 H   0  0  0  0  0  0  0  0  0  0  0  0
  -38.7124  164.9575   -3.8456 H   0  0  0  0  0  0  0  0  0  0  0  0
  -37.9391  165.5203   -5.9731 H   0  0  0  0  0  0  0  0  0  0  0  0
  -36.5345  164.4457   -6.4268 H   0  0  0  0  0  0  0  0  0  0  0  0
  -36.2862  163.6182   -8.2063 H   0  0  0  0  0  0  0  0  0  0  0  0
  -37.6050  162.3645   -8.1667 H   0  0  0  0  0  0  0  0  0  0  0  0
  -36.9495  162.7666  -10.4772 H   0  0  0  0  0  0  0  0  0  0  0  0
  -38.6157  163.4232  -10.1743 H   0  0  0  0  0  0  0  0  0  0  0  0
  -38.7582  165.6166  -11.5448 H   0  0  0  0  0  0  0  0  0  0  0  0
  -37.1510  165.8679  -12.3066 H   0  0  0  0  0  0  0  0  0  0  0  0
  -37.8995  164.2350  -12.3066 H   0  0  0  0  0  0  0  0  0  0  0  0
  -36.4259  166.1203   -8.9290 H   0  0  0  0  0  0  0  0  0  0  0  0
  -37.7536  166.7910  -10.0073 H   0  0  0  0  0  0  0  0  0  0  0  0
  -38.4848  166.3890   -7.6669 H   0  0  0  0  0  0  0  0  0  0  0  0
  -39.3865  165.4312   -8.9491 H   0  0  0  0  0  0  0  0  0  0  0  0
  -37.5293  161.8007   -6.5567 H   0  0  0  0  0  0  0  0  0  0  0  0
  -38.2589  160.1001   -4.8888 H   0  0  0  0  0  0  0  0  0  0  0  0
  -38.4571  159.2452   -0.0632 H   0  0  0  0  0  0  0  0  0  0  0  0
  -38.7740  156.7420    1.5390 H   0  0  0  0  0  0  0  0  0  0  0  0
  -36.4114  159.4028    5.3031 H   0  0  0  0  0  0  0  0  0  0  0  0
  -36.0485  157.1955    6.3630 H   0  0  0  0  0  0  0  0  0  0  0  0
  -35.9451  155.3118    7.1175 H   0  0  0  0  0  0  0  0  0  0  0  0
  -35.7989  152.9365    7.8966 H   0  0  0  0  0  0  0  0  0  0  0  0
  -36.8788  151.1632    6.5647 H   0  0  0  0  0  0  0  0  0  0  0  0
  -38.2099  153.9639    3.7347 H   0  0  0  0  0  0  0  0  0  0  0  0
  1  2  1  0
  2  3  1  0
  3  4  2  0
  4  5  1  0
  5  6  1  0
  6  7  1  0
  7  8  2  0
  7  9  1  0
  9 10  1  0
 10 11  2  0
 11 12  1  0
 12 13  1  0
 13 14  1  0
 14 15  1  0
 15 16  1  0
 16 17  1  0
 17 18  1  0
 17 19  1  0
 19 20  1  0
 12 21  2  0
 21 22  1  0
  5 23  2  0
 23 24  1  0
 24 25  1  0
 25 26  1  0
 26 27  2  0
 27 28  1  0
 28 29  2  0
 29 30  1  0
 30 31  1  0
 31 32  1  0
 32 33  2  0
 33 34  1  0
 34 35  2  0
 35 36  1  0
 30 37  2  0
 24  2  2  0
 37 26  1  0
 22  9  2  0
 36 31  2  0
 20 14  1  0
  1 38  1  0
  1 39  1  0
  1 40  1  0
  3 41  1  0
  4 42  1  0
  6 43  1  0
 10 44  1  0
 11 45  1  0
 13 46  1  0
 13 47  1  0
 15 48  1  0
 15 49  1  0
 16 50  1  0
 16 51  1  0
 18 52  1  0
 18 53  1  0
 18 54  1  0
 19 55  1  0
 19 56  1  0
 20 57  1  0
 20 58  1  0
 21 59  1  0
 22 60  1  0
 23 61  1  0
 25 62  1  0
 28 63  1  0
 29 64  1  0
 32 65  1  0
 33 66  1  0
 34 67  1  0
 36 68  1  0
M  END
>  <meeko>  (4) 
{"is_sidechain": false}

>  <vina_affinity_kcal_mol>  (4) 
-11.179

>  <pose_rank>  (4) 
4

$$$$

     RDKit          3D

 68 72  0  0  0  0  0  0  0  0999 V2000
  -39.0840  165.0330   -4.1420 C   0  0  0  0  0  0  0  0  0  0  0  0
  -38.5390  163.9710   -5.0610 C   0  0  0  0  0  0  0  0  0  0  0  0
  -38.0360  164.3680   -6.3120 C   0  0  0  0  0  0  0  0  0  0  0  0
  -37.5220  163.4340   -7.2110 C   0  0  0  0  0  0  0  0  0  0  0  0
  -37.5000  162.0860   -6.8770 C   0  0  0  0  0  0  0  0  0  0  0  0
  -37.0090  161.0700   -7.7250 N   0  0  0  0  0  0  0  0  0  0  0  0
  -37.2140  160.9380   -9.0860 C   0  0  0  0  0  0  0  0  0  0  0  0
  -37.8040  161.7200   -9.8230 O   0  0  0  0  0  0  0  0  0  0  0  0
  -36.6000  159.7230   -9.6950 C   0  0  0  0  0  0  0  0  0  0  0  0
  -36.6490  159.4850  -11.0740 C   0  0  0  0  0  0  0  0  0  0  0  0
  -36.0600  158.3340  -11.6030 C   0  0  0  0  0  0  0  0  0  0  0  0
  -35.3990  157.4180  -10.7700 C   0  0  0  0  0  0  0  0  0  0  0  0
  -34.7740  156.1610  -11.3440 C   0  0  0  0  0  0  0  0  0  0  0  0
  -33.4990  155.7990  -10.7050 N   0  0  0  0  0  0  0  0  0  0  0  0
  -32.4610  156.7960  -11.0460 C   0  0  0  0  0  0  0  0  0  0  0  0
  -31.0320  156.2360  -10.8980 C   0  0  0  0  0  0  0  0  0  0  0  0
  -30.7550  155.1520  -11.8620 N   0  0  0  0  0  0  0  0  0  0  0  0
  -29.6500  154.3210  -11.3930 C   0  0  0  0  0  0  0  0  0  0  0  0
  -31.9660  154.3540  -12.1400 C   0  0  0  0  0  0  0  0  0  0  0  0
  -33.0560  154.4290  -11.0460 C   0  0  0  0  0  0  0  0  0  0  0  0
  -35.3480  157.6690   -9.3910 C   0  0  0  0  0  0  0  0  0  0  0  0
  -35.9380  158.8180   -8.8590 C   0  0  0  0  0  0  0  0  0  0  0  0
  -38.0050  161.6880   -5.6280 C   0  0  0  0  0  0  0  0  0  0  0  0
  -38.5240  162.6050   -4.6990 C   0  0  0  0  0  0  0  0  0  0  0  0
  -39.0370  162.2060   -3.4550 N   0  0  0  0  0  0  0  0  0  0  0  0
  -38.9700  161.0430   -2.6950 C   0  0  0  0  0  0  0  0  0  0  0  0
  -38.0800  160.0740   -2.9390 N   0  0  0  0  0  0  0  0  0  0  0  0
  -38.1110  158.9920   -2.1440 C   0  0  0  0  0  0  0  0  0  0  0  0
  -39.0040  158.8340   -1.1140 C   0  0  0  0  0  0  0  0  0  0  0  0
  -39.8960  159.8670   -0.9210 C   0  0  0  0  0  0  0  0  0  0  0  0
  -40.9200  159.8590    0.1380 C   0  0  0  0  0  0  0  0  0  0  0  0
  -40.8340  159.0560    1.2860 C   0  0  0  0  0  0  0  0  0  0  0  0
  -41.8340  159.0920    2.2590 C   0  0  0  0  0  0  0  0  0  0  0  0
  -42.9110  159.9370    2.0630 C   0  0  0  0  0  0  0  0  0  0  0  0
  -43.0480  160.7260    0.9810 N   0  0  0  0  0  0  0  0  0  0  0  0
  -42.0600  160.6620    0.0510 C   0  0  0  0  0  0  0  0  0  0  0  0
  -39.8760  160.9700   -1.7040 N   0  0  0  0  0  0  0  0  0  0  0  0
  -38.9278  164.7286   -3.0966 H   0  0  0  0  0  0  0  0  0  0  0  0
  -38.5620  165.9830   -4.3292 H   0  0  0  0  0  0  0  0  0  0  0  0
  -40.1601  165.1629   -4.3292 H   0  0  0  0  0  0  0  0  0  0  0  0
  -38.0480  165.4331   -6.5865 H   0  0  0  0  0  0  0  0  0  0  0  0
  -37.1337  163.7651   -8.1854 H   0  0  0  0  0  0  0  0  0  0  0  0
  -36.3860  160.4050   -7.2860 H   0  0  0  0  0  0  0  0  0  0  0  0
  -37.1504  160.2031  -11.7396 H   0  0  0  0  0  0  0  0  0  0  0  0
  -36.1149  158.1434  -12.6850 H   0  0  0  0  0  0  0  0  0  0  0  0
  -35.4800  155.3281  -11.2104 H   0  0  0  0  0  0  0  0  0  0  0  0
  -34.5612  156.3590  -12.4049 H   0  0  0  0  0  0  0  0  0  0  0  0
  -32.6082  157.1159  -12.0881 H   0  0  0  0  0  0  0  0  0  0  0  0
  -32.5639  157.6380  -10.3457 H   0  0  0  0  0  0  0  0  0  0  0  0
  -30.3129  157.0513  -11.0655 H   0  0  0  0  0  0  0  0  0  0  0  0
  -30.9359  155.8193   -9.8845 H   0  0  0  0  0  0  0  0  0  0  0  0
  -29.6388  154.3125  -10.2931 H   0  0  0  0  0  0  0  0  0  0  0  0
  -29.7792  153.2944  -11.7663 H   0  0  0  0  0  0  0  0  0  0  0  0
  -28.6995  154.7300  -11.7663 H   0  0  0  0  0  0  0  0  0  0  0  0
  -32.4029  154.7123  -13.0838 H   0  0  0  0  0  0  0  0  0  0  0  0
  -31.6420  153.3037  -12.1835 H   0  0  0  0  0  0  0  0  0  0  0  0
  -33.9319  153.8632  -11.3962 H   0  0  0  0  0  0  0  0  0  0  0  0
  -32.6072  154.0120  -10.1324 H   0  0  0  0  0  0  0  0  0  0  0  0
  -34.8402  156.9566   -8.7242 H   0  0  0  0  0  0  0  0  0  0  0  0
  -35.8817  159.0119   -7.7777 H   0  0  0  0  0  0  0  0  0  0  0  0
  -37.9936  160.6192   -5.3680 H   0  0  0  0  0  0  0  0  0  0  0  0
  -39.5580  162.8930   -2.9320 H   0  0  0  0  0  0  0  0  0  0  0  0
  -37.3816  158.1895   -2.3283 H   0  0  0  0  0  0  0  0  0  0  0  0
  -39.0077  157.9355   -0.4795 H   0  0  0  0  0  0  0  0  0  0  0  0
  -39.9684  158.3906    1.4204 H   0  0  0  0  0  0  0  0  0  0  0  0
  -41.7671  158.4638    3.1595 H   0  0  0  0  0  0  0  0  0  0  0  0
  -43.6972  159.9659    2.8318 H   0  0  0  0  0  0  0  0  0  0  0  0
  -42.1661  161.2937   -0.8432 H   0  0  0  0  0  0  0  0  0  0  0  0
  1  2  1  0
  2  3  1  0
  3  4  2  0
  4  5  1  0
  5  6  1  0
  6  7  1  0
  7  8  2  0
  7  9  1  0
  9 10  1  0
 10 11  2  0
 11 12  1  0
 12 13  1  0
 13 14  1  0
 14 15  1  0
 15 16  1  0
 16 17  1  0
 17 18  1  0
 17 19  1  0
 19 20  1  0
 12 21  2  0
 21 22  1  0
  5 23  2  0
 23 24  1  0
 24 25  1  0
 25 26  1  0
 26 27  2  0
 27 28  1  0
 28 29  2  0
 29 30  1  0
 30 31  1  0
 31 32  1  0
 32 33  2  0
 33 34  1  0
 34 35  2  0
 35 36  1  0
 30 37  2  0
 24  2  2  0
 37 26  1  0
 22  9  2  0
 36 31  2  0
 20 14  1  0
  1 38  1  0
  1 39  1  0
  1 40  1  0
  3 41  1  0
  4 42  1  0
  6 43  1  0
 10 44  1  0
 11 45  1  0
 13 46  1  0
 13 47  1  0
 15 48  1  0
 15 49  1  0
 16 50  1  0
 16 51  1  0
 18 52  1  0
 18 53  1  0
 18 54  1  0
 19 55  1  0
 19 56  1  0
 20 57  1  0
 20 58  1  0
 21 59  1  0
 22 60  1  0
 23 61  1  0
 25 62  1  0
 28 63  1  0
 29 64  1  0
 32 65  1  0
 33 66  1  0
 34 67  1  0
 36 68  1  0
M  END
>  <meeko>  (5) 
{"is_sidechain": false}

>  <vina_affinity_kcal_mol>  (5) 
-10.897

>  <pose_rank>  (5) 
5

$$$$

     RDKit          3D

 68 72  0  0  0  0  0  0  0  0999 V2000
  -36.3180  155.9270    7.5060 C   0  0  0  0  0  0  0  0  0  0  0  0
  -36.6490  156.4650    6.1390 C   0  0  0  0  0  0  0  0  0  0  0  0
  -36.1650  157.7380    5.7900 C   0  0  0  0  0  0  0  0  0  0  0  0
  -36.4400  158.2950    4.5410 C   0  0  0  0  0  0  0  0  0  0  0  0
  -37.2010  157.5900    3.6180 C   0  0  0  0  0  0  0  0  0  0  0  0
  -37.5370  158.0770    2.3360 N   0  0  0  0  0  0  0  0  0  0  0  0
  -38.7760  158.5060    1.8960 C   0  0  0  0  0  0  0  0  0  0  0  0
  -39.8000  158.6080    2.5610 O   0  0  0  0  0  0  0  0  0  0  0  0
  -38.8220  158.9200    0.4640 C   0  0  0  0  0  0  0  0  0  0  0  0
  -38.5740  158.0140   -0.5740 C   0  0  0  0  0  0  0  0  0  0  0  0
  -38.6290  158.4440   -1.9020 C   0  0  0  0  0  0  0  0  0  0  0  0
  -38.9500  159.7760   -2.2120 C   0  0  0  0  0  0  0  0  0  0  0  0
  -38.9930  160.2450   -3.6540 C   0  0  0  0  0  0  0  0  0  0  0  0
  -38.3130  161.5310   -3.8690 N   0  0  0  0  0  0  0  0  0  0  0  0
  -39.2900  162.6390   -3.7950 C   0  0  0  0  0  0  0  0  0  0  0  0
  -38.8040  163.9070   -4.5250 C   0  0  0  0  0  0  0  0  0  0  0  0
  -38.6780  163.6970   -5.9820 N   0  0  0  0  0  0  0  0  0  0  0  0
  -37.7690  164.6800   -6.5630 C   0  0  0  0  0  0  0  0  0  0  0  0
  -38.2670  162.3140   -6.2950 C   0  0  0  0  0  0  0  0  0  0  0  0
  -37.5550  161.5730   -5.1400 C   0  0  0  0  0  0  0  0  0  0  0  0
  -39.2050  160.6730   -1.1660 C   0  0  0  0  0  0  0  0  0  0  0  0
  -39.1490  160.2460    0.1630 C   0  0  0  0  0  0  0  0  0  0  0  0
  -37.6870  156.3190    3.9660 C   0  0  0  0  0  0  0  0  0  0  0  0
  -37.4220  155.7280    5.2130 C   0  0  0  0  0  0  0  0  0  0  0  0
  -37.9150  154.4630    5.5650 N   0  0  0  0  0  0  0  0  0  0  0  0
  -37.3920  153.1730    5.5700 C   0  0  0  0  0  0  0  0  0  0  0  0
  -36.0750  152.9320    5.5650 N   0  0  0  0  0  0  0  0  0  0  0  0
  -35.6840  151.6480    5.5650 C   0  0  0  0  0  0  0  0  0  0  0  0
  -36.5560  150.5890    5.5630 C   0  0  0  0  0  0  0  0  0  0  0  0
  -37.8980  150.9090    5.5640 C   0  0  0  0  0  0  0  0  0  0  0  0
  -38.9670  149.8950    5.5610 C   0  0  0  0  0  0  0  0  0  0  0  0
  -39.0950  148.9150    4.5660 C   0  0  0  0  0  0  0  0  0  0  0  0
  -40.1270  147.9770    4.6170 C   0  0  0  0  0  0  0  0  0  0  0  0
  -41.0200  148.0390    5.6710 C   0  0  0  0  0  0  0  0  0  0  0  0
  -40.9490  148.9600    6.6510 N   0  0  0  0  0  0  0  0  0  0  0  0
  -39.9360  149.8610    6.5680 C   0  0  0  0  0  0  0  0  0  0  0  0
  -38.3140  152.1960    5.5730 N   0  0  0  0  0  0  0  0  0  0  0  0
  -36.7307  156.5978    8.2739 H   0  0  0  0  0  0  0  0  0  0  0  0
  -36.7557  154.9244    7.6213 H   0  0  0  0  0  0  0  0  0  0  0  0
  -35.2258  155.8657    7.6213 H   0  0  0  0  0  0  0  0  0  0  0  0
  -35.5597  158.3039    6.5135 H   0  0  0  0  0  0  0  0  0  0  0  0
  -36.0538  159.2932    4.2872 H   0  0  0  0  0  0  0  0  0  0  0  0
  -36.7600  158.1790    1.6960 H   0  0  0  0  0  0  0  0  0  0  0  0
  -38.3361  156.9649   -0.3442 H   0  0  0  0  0  0  0  0  0  0  0  0
  -38.4187  157.7319   -2.7136 H   0  0  0  0  0  0  0  0  0  0  0  0
  -38.5077  159.4842   -4.2830 H   0  0  0  0  0  0  0  0  0  0  0  0
  -40.0512  160.3884   -3.9181 H   0  0  0  0  0  0  0  0  0  0  0  0
  -40.2335  162.3081   -4.2536 H   0  0  0  0  0  0  0  0  0  0  0  0
  -39.4232  162.8957   -2.7337 H   0  0  0  0  0  0  0  0  0  0  0  0
  -39.5249  164.7181   -4.3448 H   0  0  0  0  0  0  0  0  0  0  0  0
  -37.8086  164.1625   -4.1328 H   0  0  0  0  0  0  0  0  0  0  0  0
  -37.2603  165.2301   -5.7576 H   0  0  0  0  0  0  0  0  0  0  0  0
  -37.0214  164.1656   -7.1847 H   0  0  0  0  0  0  0  0  0  0  0  0
  -38.3402  165.3852   -7.1847 H   0  0  0  0  0  0  0  0  0  0  0  0
  -39.1670  161.7422   -6.5652 H   0  0  0  0  0  0  0  0  0  0  0  0
  -37.5365  162.3856   -7.1143 H   0  0  0  0  0  0  0  0  0  0  0  0
  -37.3680  160.5377   -5.4613 H   0  0  0  0  0  0  0  0  0  0  0  0
  -36.6331  162.1361   -4.9324 H   0  0  0  0  0  0  0  0  0  0  0  0
  -39.4510  161.7208   -1.3930 H   0  0  0  0  0  0  0  0  0  0  0  0
  -39.3629  160.9556    0.9759 H   0  0  0  0  0  0  0  0  0  0  0  0
  -38.2969  155.7664    3.2362 H   0  0  0  0  0  0  0  0  0  0  0  0
  -38.8520  154.4220    5.9360 H   0  0  0  0  0  0  0  0  0  0  0  0
  -34.6052  151.4331    5.5667 H   0  0  0  0  0  0  0  0  0  0  0  0
  -36.2059  149.5462    5.5607 H   0  0  0  0  0  0  0  0  0  0  0  0
  -38.3738  148.8854    3.7360 H   0  0  0  0  0  0  0  0  0  0  0  0
  -40.2276  147.2071    3.8378 H   0  0  0  0  0  0  0  0  0  0  0  0
  -41.8311  147.2970    5.7111 H   0  0  0  0  0  0  0  0  0  0  0  0
  -39.8730  150.6253    7.3565 H   0  0  0  0  0  0  0  0  0  0  0  0
  1  2  1  0
  2  3  1  0
  3  4  2  0
  4  5  1  0
  5  6  1  0
  6  7  1  0
  7  8  2  0
  7  9  1  0
  9 10  1  0
 10 11  2  0
 11 12  1  0
 12 13  1  0
 13 14  1  0
 14 15  1  0
 15 16  1  0
 16 17  1  0
 17 18  1  0
 17 19  1  0
 19 20  1  0
 12 21  2  0
 21 22  1  0
  5 23  2  0
 23 24  1  0
 24 25  1  0
 25 26  1  0
 26 27  2  0
 27 28  1  0
 28 29  2  0
 29 30  1  0
 30 31  1  0
 31 32  1  0
 32 33  2  0
 33 34  1  0
 34 35  2  0
 35 36  1  0
 30 37  2  0
 24  2  2  0
 37 26  1  0
 22  9  2  0
 36 31  2  0
 20 14  1  0
  1 38  1  0
  1 39  1  0
  1 40  1  0
  3 41  1  0
  4 42  1  0
  6 43  1  0
 10 44  1  0
 11 45  1  0
 13 46  1  0
 13 47  1  0
 15 48  1  0
 15 49  1  0
 16 50  1  0
 16 51  1  0
 18 52  1  0
 18 53  1  0
 18 54  1  0
 19 55  1  0
 19 56  1  0
 20 57  1  0
 20 58  1  0
 21 59  1  0
 22 60  1  0
 23 61  1  0
 25 62  1  0
 28 63  1  0
 29 64  1  0
 32 65  1  0
 33 66  1  0
 34 67  1  0
 36 68  1  0
M  END
>  <meeko>  (6) 
{"is_sidechain": false}

>  <vina_affinity_kcal_mol>  (6) 
-10.837

>  <pose_rank>  (6) 
6

$$$$

     RDKit          3D

 68 72  0  0  0  0  0  0  0  0999 V2000
  -35.9440  156.0330    7.6320 C   0  0  0  0  0  0  0  0  0  0  0  0
  -36.3400  156.5620    6.2790 C   0  0  0  0  0  0  0  0  0  0  0  0
  -36.7220  157.9100    6.1770 C   0  0  0  0  0  0  0  0  0  0  0  0
  -37.1050  158.4600    4.9530 C   0  0  0  0  0  0  0  0  0  0  0  0
  -37.1100  157.6730    3.8090 C   0  0  0  0  0  0  0  0  0  0  0  0
  -37.4900  158.1400    2.5320 N   0  0  0  0  0  0  0  0  0  0  0  0
  -38.7710  158.2610    2.0270 C   0  0  0  0  0  0  0  0  0  0  0  0
  -39.8220  158.0500    2.6220 O   0  0  0  0  0  0  0  0  0  0  0  0
  -38.8450  158.7420    0.6170 C   0  0  0  0  0  0  0  0  0  0  0  0
  -38.2880  158.0140   -0.4410 C   0  0  0  0  0  0  0  0  0  0  0  0
  -38.3810  158.5010   -1.7460 C   0  0  0  0  0  0  0  0  0  0  0  0
  -39.0450  159.7090   -2.0170 C   0  0  0  0  0  0  0  0  0  0  0  0
  -39.1310  160.2440   -3.4330 C   0  0  0  0  0  0  0  0  0  0  0  0
  -38.3400  161.4670   -3.6430 N   0  0  0  0  0  0  0  0  0  0  0  0
  -39.1630  162.6590   -3.3460 C   0  0  0  0  0  0  0  0  0  0  0  0
  -38.6340  163.9310   -4.0390 C   0  0  0  0  0  0  0  0  0  0  0  0
  -38.7270  163.8440   -5.5110 N   0  0  0  0  0  0  0  0  0  0  0  0
  -37.7950  164.7760   -6.1380 C   0  0  0  0  0  0  0  0  0  0  0  0
  -38.5240  162.4600   -5.9840 C   0  0  0  0  0  0  0  0  0  0  0  0
  -37.7570  161.5460   -5.0010 C   0  0  0  0  0  0  0  0  0  0  0  0
  -39.6060  160.4270   -0.9520 C   0  0  0  0  0  0  0  0  0  0  0  0
  -39.5140  159.9430    0.3550 C   0  0  0  0  0  0  0  0  0  0  0  0
  -36.7300  156.3250    3.9100 C   0  0  0  0  0  0  0  0  0  0  0  0
  -36.3340  155.7430    5.1260 C   0  0  0  0  0  0  0  0  0  0  0  0
  -35.9640  154.3940    5.2280 N   0  0  0  0  0  0  0  0  0  0  0  0
  -36.6570  153.1940    5.3640 C   0  0  0  0  0  0  0  0  0  0  0  0
  -37.8160  152.9590    4.7390 N   0  0  0  0  0  0  0  0  0  0  0  0
  -38.3990  151.7680    4.9480 C   0  0  0  0  0  0  0  0  0  0  0  0
  -37.8730  150.7990    5.7640 C   0  0  0  0  0  0  0  0  0  0  0  0
  -36.6790  151.1090    6.3810 C   0  0  0  0  0  0  0  0  0  0  0  0
  -35.9780  150.1840    7.2890 C   0  0  0  0  0  0  0  0  0  0  0  0
  -35.2240  150.6130    8.3920 C   0  0  0  0  0  0  0  0  0  0  0  0
  -34.5840  149.6900    9.2200 C   0  0  0  0  0  0  0  0  0  0  0  0
  -34.7110  148.3440    8.9270 C   0  0  0  0  0  0  0  0  0  0  0  0
  -35.4180  147.8760    7.8800 N   0  0  0  0  0  0  0  0  0  0  0  0
  -36.0230  148.8020    7.0910 C   0  0  0  0  0  0  0  0  0  0  0  0
  -36.0700  152.2990    6.1770 N   0  0  0  0  0  0  0  0  0  0  0  0
  -36.4060  156.6502    8.4166 H   0  0  0  0  0  0  0  0  0  0  0  0
  -36.2873  154.9929    7.7339 H   0  0  0  0  0  0  0  0  0  0  0  0
  -34.8493  156.0694    7.7339 H   0  0  0  0  0  0  0  0  0  0  0  0
  -36.7192  158.5425    7.0769 H   0  0  0  0  0  0  0  0  0  0  0  0
  -37.4030  159.5172    4.8944 H   0  0  0  0  0  0  0  0  0  0  0  0
  -36.7320  158.4810    1.9540 H   0  0  0  0  0  0  0  0  0  0  0  0
  -37.7777  157.0596   -0.2444 H   0  0  0  0  0  0  0  0  0  0  0  0
  -37.9290  157.9321   -2.5719 H   0  0  0  0  0  0  0  0  0  0  0  0
  -38.7644  159.4687   -4.1219 H   0  0  0  0  0  0  0  0  0  0  0  0
  -40.1840  160.5013   -3.6203 H   0  0  0  0  0  0  0  0  0  0  0  0
  -40.1911  162.4720   -3.6895 H   0  0  0  0  0  0  0  0  0  0  0  0
  -39.1235  162.8296   -2.2600 H   0  0  0  0  0  0  0  0  0  0  0  0
  -39.2256  164.7929   -3.6969 H   0  0  0  0  0  0  0  0  0  0  0  0
  -37.5724  164.0436   -3.7736 H   0  0  0  0  0  0  0  0  0  0  0  0
  -37.2458  165.3252   -5.3590 H   0  0  0  0  0  0  0  0  0  0  0  0
  -37.0833  164.2175   -6.7638 H   0  0  0  0  0  0  0  0  0  0  0  0
  -38.3535  165.4877   -6.7638 H   0  0  0  0  0  0  0  0  0  0  0  0
  -39.5120  162.0126   -6.1677 H   0  0  0  0  0  0  0  0  0  0  0  0
  -37.9045  162.5297   -6.8903 H   0  0  0  0  0  0  0  0  0  0  0  0
  -37.7355  160.5307   -5.4237 H   0  0  0  0  0  0  0  0  0  0  0  0
  -36.7568  161.9885   -4.8832 H   0  0  0  0  0  0  0  0  0  0  0  0
  -40.1224  161.3785   -1.1469 H   0  0  0  0  0  0  0  0  0  0  0  0
  -39.9692  160.5081    1.1817 H   0  0  0  0  0  0  0  0  0  0  0  0
  -36.7428  155.7017    3.0037 H   0  0  0  0  0  0  0  0  0  0  0  0
  -34.9800  154.1820    5.1640 H   0  0  0  0  0  0  0  0  0  0  0  0
  -39.3502  151.5577    4.4371 H   0  0  0  0  0  0  0  0  0  0  0  0
  -38.3739  149.8317    5.9173 H   0  0  0  0  0  0  0  0  0  0  0  0
  -35.1365  151.6884    8.6062 H   0  0  0  0  0  0  0  0  0  0  0  0
  -33.9926  150.0247   10.0850 H   0  0  0  0  0  0  0  0  0  0  0  0
  -34.2085  147.6180    9.5831 H   0  0  0  0  0  0  0  0  0  0  0  0
  -36.5945  148.4336    6.2263 H   0  0  0  0  0  0  0  0  0  0  0  0
  1  2  1  0
  2  3  1  0
  3  4  2  0
  4  5  1  0
  5  6  1  0
  6  7  1  0
  7  8  2  0
  7  9  1  0
  9 10  1  0
 10 11  2  0
 11 12  1  0
 12 13  1  0
 13 14  1  0
 14 15  1  0
 15 16  1  0
 16 17  1  0
 17 18  1  0
 17 19  1  0
 19 20  1  0
 12 21  2  0
 21 22  1  0
  5 23  2  0
 23 24  1  0
 24 25  1  0
 25 26  1  0
 26 27  2  0
 27 28  1  0
 28 29  2  0
 29 30  1  0
 30 31  1  0
 31 32  1  0
 32 33  2  0
 33 34  1  0
 34 35  2  0
 35 36  1  0
 30 37  2  0
 24  2  2  0
 37 26  1  0
 22  9  2  0
 36 31  2  0
 20 14  1  0
  1 38  1  0
  1 39  1  0
  1 40  1  0
  3 41  1  0
  4 42  1  0
  6 43  1  0
 10 44  1  0
 11 45  1  0
 13 46  1  0
 13 47  1  0
 15 48  1  0
 15 49  1  0
 16 50  1  0
 16 51  1  0
 18 52  1  0
 18 53  1  0
 18 54  1  0
 19 55  1  0
 19 56  1  0
 20 57  1  0
 20 58  1  0
 21 59  1  0
 22 60  1  0
 23 61  1  0
 25 62  1  0
 28 63  1  0
 29 64  1  0
 32 65  1  0
 33 66  1  0
 34 67  1  0
 36 68  1  0
M  END
>  <meeko>  (7) 
{"is_sidechain": false}

>  <vina_affinity_kcal_mol>  (7) 
-10.395

>  <pose_rank>  (7) 
7

$$$$

     RDKit          3D

 68 72  0  0  0  0  0  0  0  0999 V2000
  -38.1960  165.4530   -7.2460 C   0  0  0  0  0  0  0  0  0  0  0  0
  -38.2770  164.5000   -6.0820 C   0  0  0  0  0  0  0  0  0  0  0  0
  -38.9970  164.9000   -4.9430 C   0  0  0  0  0  0  0  0  0  0  0  0
  -39.1060  164.0670   -3.8300 C   0  0  0  0  0  0  0  0  0  0  0  0
  -38.5000  162.8170   -3.8350 C   0  0  0  0  0  0  0  0  0  0  0  0
  -38.5490  161.9120   -2.7530 N   0  0  0  0  0  0  0  0  0  0  0  0
  -38.9480  160.5890   -2.7790 C   0  0  0  0  0  0  0  0  0  0  0  0
  -39.2670  159.9340   -3.7650 O   0  0  0  0  0  0  0  0  0  0  0  0
  -38.9340  159.9050   -1.4540 C   0  0  0  0  0  0  0  0  0  0  0  0
  -38.4880  158.5860   -1.3090 C   0  0  0  0  0  0  0  0  0  0  0  0
  -38.4910  157.9850   -0.0490 C   0  0  0  0  0  0  0  0  0  0  0  0
  -38.9200  158.6940    1.0850 C   0  0  0  0  0  0  0  0  0  0  0  0
  -38.9380  158.0340    2.4500 C   0  0  0  0  0  0  0  0  0  0  0  0
  -37.6410  157.4550    2.8350 N   0  0  0  0  0  0  0  0  0  0  0  0
  -37.8510  156.2060    3.5990 C   0  0  0  0  0  0  0  0  0  0  0  0
  -36.6420  155.8430    4.4830 C   0  0  0  0  0  0  0  0  0  0  0  0
  -36.4190  156.8330    5.5570 N   0  0  0  0  0  0  0  0  0  0  0  0
  -35.0410  156.7670    6.0340 C   0  0  0  0  0  0  0  0  0  0  0  0
  -36.7850  158.1950    5.1190 C   0  0  0  0  0  0  0  0  0  0  0  0
  -36.7910  158.4040    3.5870 C   0  0  0  0  0  0  0  0  0  0  0  0
  -39.3570  160.0180    0.9310 C   0  0  0  0  0  0  0  0  0  0  0  0
  -39.3560  160.6210   -0.3290 C   0  0  0  0  0  0  0  0  0  0  0  0
  -37.7780  162.4170   -4.9720 C   0  0  0  0  0  0  0  0  0  0  0  0
  -37.6550  163.2310   -6.1100 C   0  0  0  0  0  0  0  0  0  0  0  0
  -36.9260  162.8350   -7.2420 N   0  0  0  0  0  0  0  0  0  0  0  0
  -37.2590  162.3520   -8.5040 C   0  0  0  0  0  0  0  0  0  0  0  0
  -38.0330  163.0380   -9.3540 N   0  0  0  0  0  0  0  0  0  0  0  0
  -38.2950  162.4720  -10.5430 C   0  0  0  0  0  0  0  0  0  0  0  0
  -37.8190  161.2410  -10.9190 C   0  0  0  0  0  0  0  0  0  0  0  0
  -37.0320  160.5880   -9.9930 C   0  0  0  0  0  0  0  0  0  0  0  0
  -36.4410  159.2600  -10.2340 C   0  0  0  0  0  0  0  0  0  0  0  0
  -36.3200  158.6920  -11.5120 C   0  0  0  0  0  0  0  0  0  0  0  0
  -35.7480  157.4300  -11.6790 C   0  0  0  0  0  0  0  0  0  0  0  0
  -35.3060  156.7540  -10.5570 C   0  0  0  0  0  0  0  0  0  0  0  0
  -35.4000  157.2470   -9.3080 N   0  0  0  0  0  0  0  0  0  0  0  0
  -35.9670  158.4760   -9.1800 C   0  0  0  0  0  0  0  0  0  0  0  0
  -36.7490  161.1440   -8.7930 N   0  0  0  0  0  0  0  0  0  0  0  0
  -38.1084  166.4834   -6.8709 H   0  0  0  0  0  0  0  0  0  0  0  0
  -37.3153  165.2097   -7.8585 H   0  0  0  0  0  0  0  0  0  0  0  0
  -39.1051  165.3618   -7.8585 H   0  0  0  0  0  0  0  0  0  0  0  0
  -39.4827  165.8869   -4.9294 H   0  0  0  0  0  0  0  0  0  0  0  0
  -39.6721  164.3999   -2.9476 H   0  0  0  0  0  0  0  0  0  0  0  0
  -38.1890  162.2680   -1.8770 H   0  0  0  0  0  0  0  0  0  0  0  0
  -38.1357  158.0240   -2.1865 H   0  0  0  0  0  0  0  0  0  0  0  0
  -38.1533  156.9435    0.0570 H   0  0  0  0  0  0  0  0  0  0  0  0
  -39.2192  158.7890    3.1989 H   0  0  0  0  0  0  0  0  0  0  0  0
  -39.6619  157.2072    2.4020 H   0  0  0  0  0  0  0  0  0  0  0  0
  -38.7338  156.3310    4.2432 H   0  0  0  0  0  0  0  0  0  0  0  0
  -37.9908  155.3908    2.8738 H   0  0  0  0  0  0  0  0  0  0  0  0
  -36.8202  154.8585    4.9401 H   0  0  0  0  0  0  0  0  0  0  0  0
  -35.7472  155.8312    3.8433 H   0  0  0  0  0  0  0  0  0  0  0  0
  -35.0334  156.7666    7.1340 H   0  0  0  0  0  0  0  0  0  0  0  0
  -34.5686  155.8452    5.6637 H   0  0  0  0  0  0  0  0  0  0  0  0
  -34.4826  157.6394    5.6637 H   0  0  0  0  0  0  0  0  0  0  0  0
  -37.7933  158.4171    5.4986 H   0  0  0  0  0  0  0  0  0  0  0  0
  -36.0123  158.8673    5.5201 H   0  0  0  0  0  0  0  0  0  0  0  0
  -37.1515  159.4228    3.3820 H   0  0  0  0  0  0  0  0  0  0  0  0
  -35.7591  158.2322    3.2469 H   0  0  0  0  0  0  0  0  0  0  0  0
  -39.7026  160.5850    1.8080 H   0  0  0  0  0  0  0  0  0  0  0  0
  -39.6887  161.6639   -0.4370 H   0  0  0  0  0  0  0  0  0  0  0  0
  -37.2914  161.4305   -4.9709 H   0  0  0  0  0  0  0  0  0  0  0  0
  -35.9230  162.9290   -7.1980 H   0  0  0  0  0  0  0  0  0  0  0  0
  -38.9256  163.0252  -11.2546 H   0  0  0  0  0  0  0  0  0  0  0  0
  -38.0511  160.8012  -11.9002 H   0  0  0  0  0  0  0  0  0  0  0  0
  -36.6797  159.2473  -12.3908 H   0  0  0  0  0  0  0  0  0  0  0  0
  -35.6511  156.9837  -12.6797 H   0  0  0  0  0  0  0  0  0  0  0  0
  -34.8535  155.7605  -10.6921 H   0  0  0  0  0  0  0  0  0  0  0  0
  -36.0600  158.8862   -8.1636 H   0  0  0  0  0  0  0  0  0  0  0  0
  1  2  1  0
  2  3  1  0
  3  4  2  0
  4  5  1  0
  5  6  1  0
  6  7  1  0
  7  8  2  0
  7  9  1  0
  9 10  1  0
 10 11  2  0
 11 12  1  0
 12 13  1  0
 13 14  1  0
 14 15  1  0
 15 16  1  0
 16 17  1  0
 17 18  1  0
 17 19  1  0
 19 20  1  0
 12 21  2  0
 21 22  1  0
  5 23  2  0
 23 24  1  0
 24 25  1  0
 25 26  1  0
 26 27  2  0
 27 28  1  0
 28 29  2  0
 29 30  1  0
 30 31  1  0
 31 32  1  0
 32 33  2  0
 33 34  1  0
 34 35  2  0
 35 36  1  0
 30 37  2  0
 24  2  2  0
 37 26  1  0
 22  9  2  0
 36 31  2  0
 20 14  1  0
  1 38  1  0
  1 39  1  0
  1 40  1  0
  3 41  1  0
  4 42  1  0
  6 43  1  0
 10 44  1  0
 11 45  1  0
 13 46  1  0
 13 47  1  0
 15 48  1  0
 15 49  1  0
 16 50  1  0
 16 51  1  0
 18 52  1  0
 18 53  1  0
 18 54  1  0
 19 55  1  0
 19 56  1  0
 20 57  1  0
 20 58  1  0
 21 59  1  0
 22 60  1  0
 23 61  1  0
 25 62  1  0
 28 63  1  0
 29 64  1  0
 32 65  1  0
 33 66  1  0
 34 67  1  0
 36 68  1  0
M  END
>  <meeko>  (8) 
{"is_sidechain": false}

>  <vina_affinity_kcal_mol>  (8) 
-10.387

>  <pose_rank>  (8) 
8

$$$$

     RDKit          3D

 68 72  0  0  0  0  0  0  0  0999 V2000
  -36.7420  158.8210    5.6430 C   0  0  0  0  0  0  0  0  0  0  0  0
  -37.0010  157.3820    5.2850 C   0  0  0  0  0  0  0  0  0  0  0  0
  -36.7100  156.3950    6.2430 C   0  0  0  0  0  0  0  0  0  0  0  0
  -36.9220  155.0440    5.9720 C   0  0  0  0  0  0  0  0  0  0  0  0
  -37.4330  154.6530    4.7410 C   0  0  0  0  0  0  0  0  0  0  0  0
  -37.6710  153.3110    4.3750 N   0  0  0  0  0  0  0  0  0  0  0  0
  -38.0830  152.2750    5.1940 C   0  0  0  0  0  0  0  0  0  0  0  0
  -38.3850  152.3480    6.3790 O   0  0  0  0  0  0  0  0  0  0  0  0
  -38.2000  150.9520    4.5170 C   0  0  0  0  0  0  0  0  0  0  0  0
  -37.3230  149.8980    4.8020 C   0  0  0  0  0  0  0  0  0  0  0  0
  -37.4700  148.6740    4.1450 C   0  0  0  0  0  0  0  0  0  0  0  0
  -38.5020  148.4780    3.2130 C   0  0  0  0  0  0  0  0  0  0  0  0
  -38.6500  147.1530    2.4890 C   0  0  0  0  0  0  0  0  0  0  0  0
  -38.4780  147.2630    1.0320 N   0  0  0  0  0  0  0  0  0  0  0  0
  -38.7490  145.9580    0.3910 C   0  0  0  0  0  0  0  0  0  0  0  0
  -38.0860  145.8290   -0.9950 C   0  0  0  0  0  0  0  0  0  0  0  0
  -36.6110  145.8360   -0.9090 N   0  0  0  0  0  0  0  0  0  0  0  0
  -36.0260  146.2230   -2.1890 C   0  0  0  0  0  0  0  0  0  0  0  0
  -36.1380  146.6960    0.1950 C   0  0  0  0  0  0  0  0  0  0  0  0
  -37.1440  147.7780    0.6490 C   0  0  0  0  0  0  0  0  0  0  0  0
  -39.3800  149.5370    2.9410 C   0  0  0  0  0  0  0  0  0  0  0  0
  -39.2340  150.7630    3.5950 C   0  0  0  0  0  0  0  0  0  0  0  0
  -37.7220  155.6380    3.7820 C   0  0  0  0  0  0  0  0  0  0  0  0
  -37.5240  157.0080    4.0260 C   0  0  0  0  0  0  0  0  0  0  0  0
  -37.8040  157.9900    3.0660 N   0  0  0  0  0  0  0  0  0  0  0  0
  -38.9550  158.4290    2.4180 C   0  0  0  0  0  0  0  0  0  0  0  0
  -40.1750  158.3030    2.9550 N   0  0  0  0  0  0  0  0  0  0  0  0
  -41.2150  158.7560    2.2370 C   0  0  0  0  0  0  0  0  0  0  0  0
  -41.0890  159.3270    0.9960 C   0  0  0  0  0  0  0  0  0  0  0  0
  -39.8050  159.4210    0.5010 C   0  0  0  0  0  0  0  0  0  0  0  0
  -39.4920  160.0070   -0.8150 C   0  0  0  0  0  0  0  0  0  0  0  0
  -39.0240  159.2510   -1.9010 C   0  0  0  0  0  0  0  0  0  0  0  0
  -38.7460  159.8600   -3.1260 C   0  0  0  0  0  0  0  0  0  0  0  0
  -38.9420  161.2240   -3.2420 C   0  0  0  0  0  0  0  0  0  0  0  0
  -39.3840  161.9990   -2.2330 N   0  0  0  0  0  0  0  0  0  0  0  0
  -39.6400  161.3750   -1.0530 C   0  0  0  0  0  0  0  0  0  0  0  0
  -38.7420  158.9790    1.2110 N   0  0  0  0  0  0  0  0  0  0  0  0
  -36.7226  158.9288    6.7375 H   0  0  0  0  0  0  0  0  0  0  0  0
  -35.7731  159.1338    5.2265 H   0  0  0  0  0  0  0  0  0  0  0  0
  -37.5410  159.4520    5.2265 H   0  0  0  0  0  0  0  0  0  0  0  0
  -36.3084  156.6937    7.2226 H   0  0  0  0  0  0  0  0  0  0  0  0
  -36.6844  154.2869    6.7338 H   0  0  0  0  0  0  0  0  0  0  0  0
  -37.5880  153.1120    3.3870 H   0  0  0  0  0  0  0  0  0  0  0  0
  -36.5201  150.0336    5.5416 H   0  0  0  0  0  0  0  0  0  0  0  0
  -36.7691  147.8540    4.3602 H   0  0  0  0  0  0  0  0  0  0  0  0
  -37.8931  146.4561    2.8782 H   0  0  0  0  0  0  0  0  0  0  0  0
  -39.6746  146.7959    2.6698 H   0  0  0  0  0  0  0  0  0  0  0  0
  -38.3636  145.1591    1.0416 H   0  0  0  0  0  0  0  0  0  0  0  0
  -39.8367  145.8762    0.2489 H   0  0  0  0  0  0  0  0  0  0  0  0
  -38.4098  144.8844   -1.4564 H   0  0  0  0  0  0  0  0  0  0  0  0
  -38.3939  146.6949   -1.5994 H   0  0  0  0  0  0  0  0  0  0  0  0
  -35.1205  146.8220   -2.0122 H   0  0  0  0  0  0  0  0  0  0  0  0
  -35.7628  145.3203   -2.7597 H   0  0  0  0  0  0  0  0  0  0  0  0
  -36.7539  146.8184   -2.7597 H   0  0  0  0  0  0  0  0  0  0  0  0
  -35.9144  146.0525    1.0586 H   0  0  0  0  0  0  0  0  0  0  0  0
  -35.2563  147.2325   -0.1857 H   0  0  0  0  0  0  0  0  0  0  0  0
  -36.7163  148.3001    1.5176 H   0  0  0  0  0  0  0  0  0  0  0  0
  -37.3031  148.4364   -0.2177 H   0  0  0  0  0  0  0  0  0  0  0  0
  -40.1889  149.4016    2.2080 H   0  0  0  0  0  0  0  0  0  0  0  0
  -39.9357  151.5833    3.3836 H   0  0  0  0  0  0  0  0  0  0  0  0
  -38.1177  155.3257    2.8043 H   0  0  0  0  0  0  0  0  0  0  0  0
  -37.0340  158.5650    2.7580 H   0  0  0  0  0  0  0  0  0  0  0  0
  -42.2232  158.6643    2.6673 H   0  0  0  0  0  0  0  0  0  0  0  0
  -41.9600  159.6883    0.4295 H   0  0  0  0  0  0  0  0  0  0  0  0
  -38.8747  158.1673   -1.7857 H   0  0  0  0  0  0  0  0  0  0  0  0
  -38.3798  159.2691   -3.9785 H   0  0  0  0  0  0  0  0  0  0  0  0
  -38.7255  161.7011   -4.2092 H   0  0  0  0  0  0  0  0  0  0  0  0
  -39.9923  161.9981   -0.2178 H   0  0  0  0  0  0  0  0  0  0  0  0
  1  2  1  0
  2  3  1  0
  3  4  2  0
  4  5  1  0
  5  6  1  0
  6  7  1  0
  7  8  2  0
  7  9  1  0
  9 10  1  0
 10 11  2  0
 11 12  1  0
 12 13  1  0
 13 14  1  0
 14 15  1  0
 15 16  1  0
 16 17  1  0
 17 18  1  0
 17 19  1  0
 19 20  1  0
 12 21  2  0
 21 22  1  0
  5 23  2  0
 23 24  1  0
 24 25  1  0
 25 26  1  0
 26 27  2  0
 27 28  1  0
 28 29  2  0
 29 30  1  0
 30 31  1  0
 31 32  1  0
 32 33  2  0
 33 34  1  0
 34 35  2  0
 35 36  1  0
 30 37  2  0
 24  2  2  0
 37 26  1  0
 22  9  2  0
 36 31  2  0
 20 14  1  0
  1 38  1  0
  1 39  1  0
  1 40  1  0
  3 41  1  0
  4 42  1  0
  6 43  1  0
 10 44  1  0
 11 45  1  0
 13 46  1  0
 13 47  1  0
 15 48  1  0
 15 49  1  0
 16 50  1  0
 16 51  1  0
 18 52  1  0
 18 53  1  0
 18 54  1  0
 19 55  1  0
 19 56  1  0
 20 57  1  0
 20 58  1  0
 21 59  1  0
 22 60  1  0
 23 61  1  0
 25 62  1  0
 28 63  1  0
 29 64  1  0
 32 65  1  0
 33 66  1  0
 34 67  1  0
 36 68  1  0
M  END
>  <meeko>  (9) 
{"is_sidechain": false}

>  <vina_affinity_kcal_mol>  (9) 
-10.223

>  <pose_rank>  (9) 
9

$$$$
