
     RDKit          3D

 73 77  0  0  0  0  0  0  0  0999 V2000
  -33.8530  145.6350   -0.3050 C   0  0  0  0  0  0  0  0  0  0  0  0
  -35.0490  145.4400    0.4530 O   0  0  0  0  0  0  0  0  0  0  0  0
  -34.8320  145.2110    1.7720 C   0  0  0  0  0  0  0  0  0  0  0  0
  -34.2890  144.2270    2.2490 O   0  0  0  0  0  0  0  0  0  0  0  0
  -35.3500  146.3380    2.5950 C   0  0  0  0  0  0  0  0  0  0  0  0
  -36.6680  146.8250    2.4630 C   0  0  0  0  0  0  0  0  0  0  0  0
  -37.1310  147.8900    3.2530 C   0  0  0  0  0  0  0  0  0  0  0  0
  -36.2690  148.4620    4.1710 C   0  0  0  0  0  0  0  0  0  0  0  0
  -34.9640  147.9660    4.2880 C   0  0  0  0  0  0  0  0  0  0  0  0
  -34.4800  146.9200    3.5250 C   0  0  0  0  0  0  0  0  0  0  0  0
  -34.2530  148.6650    5.2560 N   0  0  0  0  0  0  0  0  0  0  0  0
  -35.0270  149.6570    5.8270 C   0  0  0  0  0  0  0  0  0  0  0  0
  -34.6850  150.4540    6.6830 O   0  0  0  0  0  0  0  0  0  0  0  0
  -36.3760  149.5600    5.1530 C   0  0  0  0  0  0  0  0  0  0  0  0
  -37.3760  150.4050    5.4970 C   0  0  0  0  0  0  0  0  0  0  0  0
  -37.2660  151.3700    6.5100 N   0  0  0  0  0  0  0  0  0  0  0  0
  -37.1610  152.7640    6.3040 C   0  0  0  0  0  0  0  0  0  0  0  0
  -37.9990  153.6740    6.9430 C   0  0  0  0  0  0  0  0  0  0  0  0
  -37.9050  155.0480    6.6810 C   0  0  0  0  0  0  0  0  0  0  0  0
  -36.9680  155.5620    5.7680 C   0  0  0  0  0  0  0  0  0  0  0  0
  -36.8980  156.9810    5.5000 N   0  0  0  0  0  0  0  0  0  0  0  0
  -36.6720  157.8600    6.6510 C   0  0  0  0  0  0  0  0  0  0  0  0
  -36.9410  157.4950    4.1800 C   0  0  0  0  0  0  0  0  0  0  0  0
  -35.9690  157.9860    3.6010 O   0  0  0  0  0  0  0  0  0  0  0  0
  -38.3200  157.4210    3.4760 C   0  0  0  0  0  0  0  0  0  0  0  0
  -38.5620  158.4200    2.4180 N   0  0  0  0  0  0  0  0  0  0  0  0
  -39.8610  159.1080    2.5170 C   0  0  0  0  0  0  0  0  0  0  0  0
  -40.7080  159.1000    1.2190 C   0  0  0  0  0  0  0  0  0  0  0  0
  -39.9880  159.4860   -0.0090 N   0  0  0  0  0  0  0  0  0  0  0  0
  -40.0520  160.9250   -0.2450 C   0  0  0  0  0  0  0  0  0  0  0  0
  -38.5850  159.0190    0.0130 C   0  0  0  0  0  0  0  0  0  0  0  0
  -38.2940  157.9210    1.0620 C   0  0  0  0  0  0  0  0  0  0  0  0
  -36.1380  154.6360    5.1260 C   0  0  0  0  0  0  0  0  0  0  0  0
  -36.2330  153.2600    5.3870 C   0  0  0  0  0  0  0  0  0  0  0  0
  -38.6770  150.2900    4.8050 C   0  0  0  0  0  0  0  0  0  0  0  0
  -38.9000  150.9550    3.5910 C   0  0  0  0  0  0  0  0  0  0  0  0
  -40.1280  150.8360    2.9390 C   0  0  0  0  0  0  0  0  0  0  0  0
  -41.1390  150.0520    3.4930 C   0  0  0  0  0  0  0  0  0  0  0  0
  -40.9280  149.3900    4.7020 C   0  0  0  0  0  0  0  0  0  0  0  0
  -39.7020  149.5080    5.3580 C   0  0  0  0  0  0  0  0  0  0  0  0
  -33.0034  145.7735    0.3798 H   0  0  0  0  0  0  0  0  0  0  0  0
  -33.6731  144.7543   -0.9391 H   0  0  0  0  0  0  0  0  0  0  0  0
  -33.9621  146.5272   -0.9391 H   0  0  0  0  0  0  0  0  0  0  0  0
  -37.3442  146.3626    1.7289 H   0  0  0  0  0  0  0  0  0  0  0  0
  -38.1603  148.2623    3.1436 H   0  0  0  0  0  0  0  0  0  0  0  0
  -33.4482  146.5577    3.6442 H   0  0  0  0  0  0  0  0  0  0  0  0
  -33.2920  148.5040    5.5180 H   0  0  0  0  0  0  0  0  0  0  0  0
  -36.6050  151.0640    7.2350 H   0  0  0  0  0  0  0  0  0  0  0  0
  -38.7457  153.3095    7.6639 H   0  0  0  0  0  0  0  0  0  0  0  0
  -38.5813  155.7410    7.2029 H   0  0  0  0  0  0  0  0  0  0  0  0
  -36.8183  157.2912    7.5811 H   0  0  0  0  0  0  0  0  0  0  0  0
  -35.6442  158.2506    6.6179 H   0  0  0  0  0  0  0  0  0  0  0  0
  -37.3839  158.6979    6.6179 H   0  0  0  0  0  0  0  0  0  0  0  0
  -38.4134  156.4227    3.0236 H   0  0  0  0  0  0  0  0  0  0  0  0
  -39.0634  157.6329    4.2586 H   0  0  0  0  0  0  0  0  0  0  0  0
  -40.4465  158.6188    3.3094 H   0  0  0  0  0  0  0  0  0  0  0  0
  -39.6342  160.1633    2.7291 H   0  0  0  0  0  0  0  0  0  0  0  0
  -41.1008  158.0825    1.0764 H   0  0  0  0  0  0  0  0  0  0  0  0
  -41.4902  159.8598    1.3630 H   0  0  0  0  0  0  0  0  0  0  0  0
  -40.0755  161.4540    0.7192 H   0  0  0  0  0  0  0  0  0  0  0  0
  -39.1671  161.2426   -0.8160 H   0  0  0  0  0  0  0  0  0  0  0  0
  -40.9616  161.1628   -0.8160 H   0  0  0  0  0  0  0  0  0  0  0  0
  -38.3401  158.6182   -0.9817 H   0  0  0  0  0  0  0  0  0  0  0  0
  -37.9691  159.8878    0.2886 H   0  0  0  0  0  0  0  0  0  0  0  0
  -38.9368  157.0509    0.8630 H   0  0  0  0  0  0  0  0  0  0  0  0
  -37.2344  157.6340    0.9917 H   0  0  0  0  0  0  0  0  0  0  0  0
  -35.3937  154.9948    4.3998 H   0  0  0  0  0  0  0  0  0  0  0  0
  -35.5657  152.5617    4.8606 H   0  0  0  0  0  0  0  0  0  0  0  0
  -38.1037  151.5731    3.1507 H   0  0  0  0  0  0  0  0  0  0  0  0
  -40.2984  151.3610    1.9875 H   0  0  0  0  0  0  0  0  0  0  0  0
  -42.1048  149.9555    2.9755 H   0  0  0  0  0  0  0  0  0  0  0  0
  -41.7283  148.7745    5.1388 H   0  0  0  0  0  0  0  0  0  0  0  0
  -39.5387  148.9859    6.3123 H   0  0  0  0  0  0  0  0  0  0  0  0
  1  2  1  0
  2  3  1  0
  3  4  2  0
  3  5  1  0
  5  6  1  0
  6  7  2  0
  7  8  1  0
  8  9  2  0
  9 10  1  0
  9 11  1  0
 11 12  1  0
 12 13  2  0
 12 14  1  0
 14 15  2  0
 15 16  1  0
 16 17  1  0
 17 18  1  0
 18 19  2  0
 19 20  1  0
 20 21  1  0
 21 22  1  0
 21 23  1  0
 23 24  2  0
 23 25  1  0
 25 26  1  0
 26 27  1  0
 27 28  1  0
 28 29  1  0
 29 30  1  0
 29 31  1  0
 31 32  1  0
 20 33  2  0
 33 34  1  0
 15 35  1  0
 35 36  2  0
 36 37  1  0
 37 38  2  0
 38 39  1  0
 39 40  2  0
 10  5  2  0
 34 17  2  0
 40 35  1  0
 14  8  1  0
 32 26  1  0
  1 41  1  0
  1 42  1  0
  1 43  1  0
  6 44  1  0
  7 45  1  0
 10 46  1  0
 11 47  1  0
 16 48  1  0
 18 49  1  0
 19 50  1  0
 22 51  1  0
 22 52  1  0
 22 53  1  0
 25 54  1  0
 25 55  1  0
 27 56  1  0
 27 57  1  0
 28 58  1  0
 28 59  1  0
 30 60  1  0
 30 61  1  0
 30 62  1  0
 31 63  1  0
 31 64  1  0
 32 65  1  0
 32 66  1  0
 33 67  1  0
 34 68  1  0
 36 69  1  0
 37 70  1  0
 38 71  1  0
 39 72  1  0
 40 73  1  0
M  END
>  <meeko>  (1) 
{"is_sidechain": false}

>  <vina_affinity_kcal_mol>  (1) 
-8.613

>  <pose_rank>  (1) 
1

$$$$

     RDKit          3D

 73 77  0  0  0  0  0  0  0  0999 V2000
  -34.1230  156.8810    6.6200 C   0  0  0  0  0  0  0  0  0  0  0  0
  -34.5930  155.7530    7.3620 O   0  0  0  0  0  0  0  0  0  0  0  0
  -35.9080  155.4820    7.1760 C   0  0  0  0  0  0  0  0  0  0  0  0
  -36.8330  156.2620    7.3440 O   0  0  0  0  0  0  0  0  0  0  0  0
  -36.0990  154.0750    6.7270 C   0  0  0  0  0  0  0  0  0  0  0  0
  -37.2590  153.6530    6.0430 C   0  0  0  0  0  0  0  0  0  0  0  0
  -37.4130  152.3190    5.6310 C   0  0  0  0  0  0  0  0  0  0  0  0
  -36.4020  151.4150    5.9080 C   0  0  0  0  0  0  0  0  0  0  0  0
  -35.2580  151.8530    6.5880 C   0  0  0  0  0  0  0  0  0  0  0  0
  -35.0780  153.1580    7.0060 C   0  0  0  0  0  0  0  0  0  0  0  0
  -34.3620  150.8070    6.7730 N   0  0  0  0  0  0  0  0  0  0  0  0
  -34.8500  149.6290    6.2430 C   0  0  0  0  0  0  0  0  0  0  0  0
  -34.3140  148.5350    6.2660 O   0  0  0  0  0  0  0  0  0  0  0  0
  -36.1940  149.9770    5.6460 C   0  0  0  0  0  0  0  0  0  0  0  0
  -36.9400  149.0250    5.0370 C   0  0  0  0  0  0  0  0  0  0  0  0
  -36.5190  147.6990    4.8640 N   0  0  0  0  0  0  0  0  0  0  0  0
  -35.6590  147.2400    3.8400 C   0  0  0  0  0  0  0  0  0  0  0  0
  -35.1680  148.0850    2.8480 C   0  0  0  0  0  0  0  0  0  0  0  0
  -34.3570  147.5910    1.8170 C   0  0  0  0  0  0  0  0  0  0  0  0
  -34.0090  146.2310    1.7390 C   0  0  0  0  0  0  0  0  0  0  0  0
  -33.1860  145.7390    0.6570 N   0  0  0  0  0  0  0  0  0  0  0  0
  -32.0670  144.8660    1.0240 C   0  0  0  0  0  0  0  0  0  0  0  0
  -33.5010  145.9990   -0.7000 C   0  0  0  0  0  0  0  0  0  0  0  0
  -32.8430  146.7450   -1.4290 O   0  0  0  0  0  0  0  0  0  0  0  0
  -34.7680  145.2880   -1.2420 C   0  0  0  0  0  0  0  0  0  0  0  0
  -36.0350  146.0310   -1.1100 N   0  0  0  0  0  0  0  0  0  0  0  0
  -37.1590  145.2290   -0.5960 C   0  0  0  0  0  0  0  0  0  0  0  0
  -38.4510  145.2890   -1.4500 C   0  0  0  0  0  0  0  0  0  0  0  0
  -38.8900  146.6430   -1.8390 N   0  0  0  0  0  0  0  0  0  0  0  0
  -39.7880  147.2280   -0.8470 C   0  0  0  0  0  0  0  0  0  0  0  0
  -37.7400  147.5350   -2.0970 C   0  0  0  0  0  0  0  0  0  0  0  0
  -36.3960  146.7990   -2.3090 C   0  0  0  0  0  0  0  0  0  0  0  0
  -34.5170  145.3910    2.7360 C   0  0  0  0  0  0  0  0  0  0  0  0
  -35.3300  145.8850    3.7690 C   0  0  0  0  0  0  0  0  0  0  0  0
  -38.2580  149.4000    4.4790 C   0  0  0  0  0  0  0  0  0  0  0  0
  -39.4050  149.3760    5.2850 C   0  0  0  0  0  0  0  0  0  0  0  0
  -40.6440  149.7390    4.7540 C   0  0  0  0  0  0  0  0  0  0  0  0
  -40.7440  150.1280    3.4180 C   0  0  0  0  0  0  0  0  0  0  0  0
  -39.6090  150.1500    2.6090 C   0  0  0  0  0  0  0  0  0  0  0  0
  -38.3690  149.7870    3.1360 C   0  0  0  0  0  0  0  0  0  0  0  0
  -33.7954  157.6672    7.3162 H   0  0  0  0  0  0  0  0  0  0  0  0
  -33.2769  156.5764    5.9865 H   0  0  0  0  0  0  0  0  0  0  0  0
  -34.9350  157.2673    5.9865 H   0  0  0  0  0  0  0  0  0  0  0  0
  -38.0557  154.3807    5.8290 H   0  0  0  0  0  0  0  0  0  0  0  0
  -38.3203  151.9986    5.0980 H   0  0  0  0  0  0  0  0  0  0  0  0
  -34.1658  153.4652    7.5385 H   0  0  0  0  0  0  0  0  0  0  0  0
  -33.4710  150.8660    7.2420 H   0  0  0  0  0  0  0  0  0  0  0  0
  -37.3030  147.0470    4.9910 H   0  0  0  0  0  0  0  0  0  0  0  0
  -35.4202  149.1554    2.8739 H   0  0  0  0  0  0  0  0  0  0  0  0
  -33.9834  148.2849    1.0496 H   0  0  0  0  0  0  0  0  0  0  0  0
  -31.9918  144.8073    2.1199 H   0  0  0  0  0  0  0  0  0  0  0  0
  -32.2372  143.8597    0.6138 H   0  0  0  0  0  0  0  0  0  0  0  0
  -31.1323  145.2759    0.6138 H   0  0  0  0  0  0  0  0  0  0  0  0
  -34.6077  145.0841   -2.3110 H   0  0  0  0  0  0  0  0  0  0  0  0
  -34.8883  144.3862   -0.6237 H   0  0  0  0  0  0  0  0  0  0  0  0
  -36.8334  144.1796   -0.5431 H   0  0  0  0  0  0  0  0  0  0  0  0
  -37.4183  145.6558    0.3841 H   0  0  0  0  0  0  0  0  0  0  0  0
  -38.2770  144.7113   -2.3698 H   0  0  0  0  0  0  0  0  0  0  0  0
  -39.2523  144.8808   -0.8166 H   0  0  0  0  0  0  0  0  0  0  0  0
  -39.4232  146.9903    0.1632 H   0  0  0  0  0  0  0  0  0  0  0  0
  -39.8184  148.3197   -0.9785 H   0  0  0  0  0  0  0  0  0  0  0  0
  -40.7988  146.8146   -0.9785 H   0  0  0  0  0  0  0  0  0  0  0  0
  -37.9566  148.1231   -3.0010 H   0  0  0  0  0  0  0  0  0  0  0  0
  -37.6185  148.1586   -1.1990 H   0  0  0  0  0  0  0  0  0  0  0  0
  -36.4900  146.1129   -3.1636 H   0  0  0  0  0  0  0  0  0  0  0  0
  -35.6100  147.5432   -2.5047 H   0  0  0  0  0  0  0  0  0  0  0  0
  -34.2739  144.3185    2.7101 H   0  0  0  0  0  0  0  0  0  0  0  0
  -35.7135  145.1938    4.5339 H   0  0  0  0  0  0  0  0  0  0  0  0
  -39.3284  149.0703    6.3389 H   0  0  0  0  0  0  0  0  0  0  0  0
  -41.5418  149.7183    5.3893 H   0  0  0  0  0  0  0  0  0  0  0  0
  -41.7203  150.4179    3.0022 H   0  0  0  0  0  0  0  0  0  0  0  0
  -39.6909  150.4536    1.5549 H   0  0  0  0  0  0  0  0  0  0  0  0
  -37.4751  149.8046    2.4952 H   0  0  0  0  0  0  0  0  0  0  0  0
  1  2  1  0
  2  3  1  0
  3  4  2  0
  3  5  1  0
  5  6  1  0
  6  7  2  0
  7  8  1  0
  8  9  2  0
  9 10  1  0
  9 11  1  0
 11 12  1  0
 12 13  2  0
 12 14  1  0
 14 15  2  0
 15 16  1  0
 16 17  1  0
 17 18  1  0
 18 19  2  0
 19 20  1  0
 20 21  1  0
 21 22  1  0
 21 23  1  0
 23 24  2  0
 23 25  1  0
 25 26  1  0
 26 27  1  0
 27 28  1  0
 28 29  1  0
 29 30  1  0
 29 31  1  0
 31 32  1  0
 20 33  2  0
 33 34  1  0
 15 35  1  0
 35 36  2  0
 36 37  1  0
 37 38  2  0
 38 39  1  0
 39 40  2  0
 10  5  2  0
 34 17  2  0
 40 35  1  0
 14  8  1  0
 32 26  1  0
  1 41  1  0
  1 42  1  0
  1 43  1  0
  6 44  1  0
  7 45  1  0
 10 46  1  0
 11 47  1  0
 16 48  1  0
 18 49  1  0
 19 50  1  0
 22 51  1  0
 22 52  1  0
 22 53  1  0
 25 54  1  0
 25 55  1  0
 27 56  1  0
 27 57  1  0
 28 58  1  0
 28 59  1  0
 30 60  1  0
 30 61  1  0
 30 62  1  0
 31 63  1  0
 31 64  1  0
 32 65  1  0
 32 66  1  0
 33 67  1  0
 34 68  1  0
 36 69  1  0
 37 70  1  0
 38 71  1  0
 39 72  1  0
 40 73  1  0
M  END
>  <meeko>  (2) 
{"is_sidechain": false}

>  <vina_affinity_kcal_mol>  (2) 
-8.432

>  <pose_rank>  (2) 
2

$$$$

     RDKit          3D

 73 77  0  0  0  0  0  0  0  0999 V2000
  -36.7000  157.6390    5.1210 C   0  0  0  0  0  0  0  0  0  0  0  0
  -37.1310  156.5900    5.9900 O   0  0  0  0  0  0  0  0  0  0  0  0
  -36.1160  155.9060    6.5730 C   0  0  0  0  0  0  0  0  0  0  0  0
  -35.1880  156.3960    7.1980 O   0  0  0  0  0  0  0  0  0  0  0  0
  -36.2720  154.4420    6.3550 C   0  0  0  0  0  0  0  0  0  0  0  0
  -37.3770  153.8950    5.6680 C   0  0  0  0  0  0  0  0  0  0  0  0
  -37.4980  152.5090    5.4760 C   0  0  0  0  0  0  0  0  0  0  0  0
  -36.5110  151.6780    5.9750 C   0  0  0  0  0  0  0  0  0  0  0  0
  -35.4220  152.2390    6.6540 C   0  0  0  0  0  0  0  0  0  0  0  0
  -35.2740  153.5980    6.8590 C   0  0  0  0  0  0  0  0  0  0  0  0
  -34.5420  151.2510    7.0790 N   0  0  0  0  0  0  0  0  0  0  0  0
  -34.9880  149.9940    6.7200 C   0  0  0  0  0  0  0  0  0  0  0  0
  -34.4550  148.9270    6.9680 O   0  0  0  0  0  0  0  0  0  0  0  0
  -36.2830  150.2190    5.9760 C   0  0  0  0  0  0  0  0  0  0  0  0
  -36.9810  149.1690    5.4830 C   0  0  0  0  0  0  0  0  0  0  0  0
  -36.5470  147.8380    5.5670 N   0  0  0  0  0  0  0  0  0  0  0  0
  -35.8600  147.1350    4.5520 C   0  0  0  0  0  0  0  0  0  0  0  0
  -35.9350  145.7500    4.4260 C   0  0  0  0  0  0  0  0  0  0  0  0
  -35.2020  145.0750    3.4390 C   0  0  0  0  0  0  0  0  0  0  0  0
  -34.3650  145.7620    2.5430 C   0  0  0  0  0  0  0  0  0  0  0  0
  -33.6050  145.0450    1.5440 N   0  0  0  0  0  0  0  0  0  0  0  0
  -32.5750  144.1240    2.0330 C   0  0  0  0  0  0  0  0  0  0  0  0
  -33.9060  145.1450    0.1630 C   0  0  0  0  0  0  0  0  0  0  0  0
  -33.0670  145.0270   -0.7340 O   0  0  0  0  0  0  0  0  0  0  0  0
  -35.3900  145.4330   -0.1820 C   0  0  0  0  0  0  0  0  0  0  0  0
  -35.6310  146.5160   -1.1530 N   0  0  0  0  0  0  0  0  0  0  0  0
  -34.8500  147.7410   -0.9040 C   0  0  0  0  0  0  0  0  0  0  0  0
  -35.6810  149.0490   -0.8550 C   0  0  0  0  0  0  0  0  0  0  0  0
  -36.6340  149.2350   -1.9650 N   0  0  0  0  0  0  0  0  0  0  0  0
  -36.0220  149.9320   -3.0930 C   0  0  0  0  0  0  0  0  0  0  0  0
  -37.2220  147.9500   -2.3990 C   0  0  0  0  0  0  0  0  0  0  0  0
  -37.0540  146.7960   -1.3840 C   0  0  0  0  0  0  0  0  0  0  0  0
  -34.2910  147.1520    2.6870 C   0  0  0  0  0  0  0  0  0  0  0  0
  -35.0240  147.8280    3.6740 C   0  0  0  0  0  0  0  0  0  0  0  0
  -38.2530  149.4270    4.7740 C   0  0  0  0  0  0  0  0  0  0  0  0
  -39.4640  149.4730    5.4780 C   0  0  0  0  0  0  0  0  0  0  0  0
  -40.6600  149.7260    4.8040 C   0  0  0  0  0  0  0  0  0  0  0  0
  -40.6530  149.9340    3.4250 C   0  0  0  0  0  0  0  0  0  0  0  0
  -39.4540  149.8860    2.7160 C   0  0  0  0  0  0  0  0  0  0  0  0
  -38.2560  149.6320    3.3860 C   0  0  0  0  0  0  0  0  0  0  0  0
  -36.3497  158.4917    5.7212 H   0  0  0  0  0  0  0  0  0  0  0  0
  -35.8785  157.2752    4.4864 H   0  0  0  0  0  0  0  0  0  0  0  0
  -37.5400  157.9578    4.4864 H   0  0  0  0  0  0  0  0  0  0  0  0
  -38.1563  154.5654    5.2765 H   0  0  0  0  0  0  0  0  0  0  0  0
  -38.3622  152.0917    4.9384 H   0  0  0  0  0  0  0  0  0  0  0  0
  -34.4044  154.0019    7.3981 H   0  0  0  0  0  0  0  0  0  0  0  0
  -33.6880  151.4000    7.5970 H   0  0  0  0  0  0  0  0  0  0  0  0
  -37.2730  147.2430    5.9850 H   0  0  0  0  0  0  0  0  0  0  0  0
  -36.5783  145.1774    5.1103 H   0  0  0  0  0  0  0  0  0  0  0  0
  -35.2842  143.9806    3.3643 H   0  0  0  0  0  0  0  0  0  0  0  0
  -32.5753  144.1242    3.1330 H   0  0  0  0  0  0  0  0  0  0  0  0
  -32.7870  143.1088    1.6665 H   0  0  0  0  0  0  0  0  0  0  0  0
  -31.5897  144.4478    1.6665 H   0  0  0  0  0  0  0  0  0  0  0  0
  -35.8249  144.5100   -0.5930 H   0  0  0  0  0  0  0  0  0  0  0  0
  -35.8522  145.7699    0.7576 H   0  0  0  0  0  0  0  0  0  0  0  0
  -34.3354  147.6273    0.0615 H   0  0  0  0  0  0  0  0  0  0  0  0
  -34.1620  147.8455   -1.7559 H   0  0  0  0  0  0  0  0  0  0  0  0
  -36.2508  149.0540    0.0859 H   0  0  0  0  0  0  0  0  0  0  0  0
  -34.9558  149.8720   -0.9371 H   0  0  0  0  0  0  0  0  0  0  0  0
  -35.3398  150.7089   -2.7175 H   0  0  0  0  0  0  0  0  0  0  0  0
  -35.4577  149.2134   -3.7056 H   0  0  0  0  0  0  0  0  0  0  0  0
  -36.8075  150.3986   -3.7056 H   0  0  0  0  0  0  0  0  0  0  0  0
  -38.2977  148.1041   -2.5699 H   0  0  0  0  0  0  0  0  0  0  0  0
  -36.6822  147.6490   -3.3090 H   0  0  0  0  0  0  0  0  0  0  0  0
  -37.5261  147.0800   -0.4319 H   0  0  0  0  0  0  0  0  0  0  0  0
  -37.5325  145.8928   -1.7905 H   0  0  0  0  0  0  0  0  0  0  0  0
  -33.6428  147.7282    2.0104 H   0  0  0  0  0  0  0  0  0  0  0  0
  -34.9388  148.9215    3.7576 H   0  0  0  0  0  0  0  0  0  0  0  0
  -39.4721  149.3092    6.5657 H   0  0  0  0  0  0  0  0  0  0  0  0
  -41.6081  149.7613    5.3607 H   0  0  0  0  0  0  0  0  0  0  0  0
  -41.5958  150.1364    2.8957 H   0  0  0  0  0  0  0  0  0  0  0  0
  -39.4517  150.0483    1.6280 H   0  0  0  0  0  0  0  0  0  0  0  0
  -37.3113  149.5924    2.8239 H   0  0  0  0  0  0  0  0  0  0  0  0
  1  2  1  0
  2  3  1  0
  3  4  2  0
  3  5  1  0
  5  6  1  0
  6  7  2  0
  7  8  1  0
  8  9  2  0
  9 10  1  0
  9 11  1  0
 11 12  1  0
 12 13  2  0
 12 14  1  0
 14 15  2  0
 15 16  1  0
 16 17  1  0
 17 18  1  0
 18 19  2  0
 19 20  1  0
 20 21  1  0
 21 22  1  0
 21 23  1  0
 23 24  2  0
 23 25  1  0
 25 26  1  0
 26 27  1  0
 27 28  1  0
 28 29  1  0
 29 30  1  0
 29 31  1  0
 31 32  1  0
 20 33  2  0
 33 34  1  0
 15 35  1  0
 35 36  2  0
 36 37  1  0
 37 38  2  0
 38 39  1  0
 39 40  2  0
 10  5  2  0
 34 17  2  0
 40 35  1  0
 14  8  1  0
 32 26  1  0
  1 41  1  0
  1 42  1  0
  1 43  1  0
  6 44  1  0
  7 45  1  0
 10 46  1  0
 11 47  1  0
 16 48  1  0
 18 49  1  0
 19 50  1  0
 22 51  1  0
 22 52  1  0
 22 53  1  0
 25 54  1  0
 25 55  1  0
 27 56  1  0
 27 57  1  0
 28 58  1  0
 28 59  1  0
 30 60  1  0
 30 61  1  0
 30 62  1  0
 31 63  1  0
 31 64  1  0
 32 65  1  0
 32 66  1  0
 33 67  1  0
 34 68  1  0
 36 69  1  0
 37 70  1  0
 38 71  1  0
 39 72  1  0
 40 73  1  0
M  END
>  <meeko>  (3) 
{"is_sidechain": false}

>  <vina_affinity_kcal_mol>  (3) 
-8.416

>  <pose_rank>  (3) 
3

$$$$

     RDKit          3D

 73 77  0  0  0  0  0  0  0  0999 V2000
  -34.1060  156.5700    6.6610 C   0  0  0  0  0  0  0  0  0  0  0  0
  -34.5300  155.4390    7.4240 O   0  0  0  0  0  0  0  0  0  0  0  0
  -35.8600  155.1880    7.3420 C   0  0  0  0  0  0  0  0  0  0  0  0
  -36.7550  155.9410    7.6920 O   0  0  0  0  0  0  0  0  0  0  0  0
  -36.1080  153.8420    6.7560 C   0  0  0  0  0  0  0  0  0  0  0  0
  -37.3660  153.4670    6.2350 C   0  0  0  0  0  0  0  0  0  0  0  0
  -37.5720  152.1900    5.6880 C   0  0  0  0  0  0  0  0  0  0  0  0
  -36.5170  151.2950    5.6670 C   0  0  0  0  0  0  0  0  0  0  0  0
  -35.2770  151.6850    6.1880 C   0  0  0  0  0  0  0  0  0  0  0  0
  -35.0430  152.9340    6.7330 C   0  0  0  0  0  0  0  0  0  0  0  0
  -34.3490  150.6570    6.0790 N   0  0  0  0  0  0  0  0  0  0  0  0
  -34.9070  149.5370    5.4950 C   0  0  0  0  0  0  0  0  0  0  0  0
  -34.3620  148.4690    5.2850 O   0  0  0  0  0  0  0  0  0  0  0  0
  -36.3400  149.9090    5.1900 C   0  0  0  0  0  0  0  0  0  0  0  0
  -37.1690  149.0140    4.6030 C   0  0  0  0  0  0  0  0  0  0  0  0
  -36.7680  147.7350    4.1900 N   0  0  0  0  0  0  0  0  0  0  0  0
  -36.9580  147.1950    2.8980 C   0  0  0  0  0  0  0  0  0  0  0  0
  -36.4910  147.8310    1.7510 C   0  0  0  0  0  0  0  0  0  0  0  0
  -36.7390  147.2960    0.4780 C   0  0  0  0  0  0  0  0  0  0  0  0
  -37.4650  146.1050    0.3080 C   0  0  0  0  0  0  0  0  0  0  0  0
  -37.7230  145.5800   -1.0150 N   0  0  0  0  0  0  0  0  0  0  0  0
  -38.8380  146.1760   -1.7550 C   0  0  0  0  0  0  0  0  0  0  0  0
  -36.8790  144.6100   -1.6110 C   0  0  0  0  0  0  0  0  0  0  0  0
  -37.0890  143.3960   -1.5680 O   0  0  0  0  0  0  0  0  0  0  0  0
  -35.6250  145.1660   -2.3350 C   0  0  0  0  0  0  0  0  0  0  0  0
  -34.3580  145.0910   -1.5850 N   0  0  0  0  0  0  0  0  0  0  0  0
  -34.4260  144.2820   -0.3550 C   0  0  0  0  0  0  0  0  0  0  0  0
  -33.9030  144.9860    0.9230 C   0  0  0  0  0  0  0  0  0  0  0  0
  -32.5920  145.6490    0.7880 N   0  0  0  0  0  0  0  0  0  0  0  0
  -31.4910  144.7450    1.1080 C   0  0  0  0  0  0  0  0  0  0  0  0
  -32.4150  146.2370   -0.5570 C   0  0  0  0  0  0  0  0  0  0  0  0
  -33.7260  146.3980   -1.3610 C   0  0  0  0  0  0  0  0  0  0  0  0
  -37.9360  145.4810    1.4680 C   0  0  0  0  0  0  0  0  0  0  0  0
  -37.6890  146.0160    2.7420 C   0  0  0  0  0  0  0  0  0  0  0  0
  -38.5690  149.4090    4.3350 C   0  0  0  0  0  0  0  0  0  0  0  0
  -39.5870  149.0840    5.2430 C   0  0  0  0  0  0  0  0  0  0  0  0
  -40.9050  149.4670    4.9880 C   0  0  0  0  0  0  0  0  0  0  0  0
  -41.2140  150.1740    3.8270 C   0  0  0  0  0  0  0  0  0  0  0  0
  -40.2090  150.4970    2.9160 C   0  0  0  0  0  0  0  0  0  0  0  0
  -38.8900  150.1160    3.1670 C   0  0  0  0  0  0  0  0  0  0  0  0
  -33.8028  157.3789    7.3420 H   0  0  0  0  0  0  0  0  0  0  0  0
  -33.2534  156.2857    6.0268 H   0  0  0  0  0  0  0  0  0  0  0  0
  -34.9354  156.9162    6.0268 H   0  0  0  0  0  0  0  0  0  0  0  0
  -38.1977  154.1866    6.2580 H   0  0  0  0  0  0  0  0  0  0  0  0
  -38.5548  151.9063    5.2834 H   0  0  0  0  0  0  0  0  0  0  0  0
  -34.0551  153.2045    7.1342 H   0  0  0  0  0  0  0  0  0  0  0  0
  -33.3890  150.6880    6.3910 H   0  0  0  0  0  0  0  0  0  0  0  0
  -36.9900  147.0340    4.9070 H   0  0  0  0  0  0  0  0  0  0  0  0
  -35.9195  148.7662    1.8442 H   0  0  0  0  0  0  0  0  0  0  0  0
  -36.3557  147.8218   -0.4089 H   0  0  0  0  0  0  0  0  0  0  0  0
  -39.5791  146.5721   -1.0452 H   0  0  0  0  0  0  0  0  0  0  0  0
  -38.4627  146.9938   -2.3877 H   0  0  0  0  0  0  0  0  0  0  0  0
  -39.3095  145.4096   -2.3877 H   0  0  0  0  0  0  0  0  0  0  0  0
  -35.4970  144.5993   -3.2690 H   0  0  0  0  0  0  0  0  0  0  0  0
  -35.8191  146.2388   -2.4816 H   0  0  0  0  0  0  0  0  0  0  0  0
  -35.4773  144.0057   -0.1862 H   0  0  0  0  0  0  0  0  0  0  0  0
  -33.7675  143.4165   -0.5200 H   0  0  0  0  0  0  0  0  0  0  0  0
  -34.6401  145.7479    1.2167 H   0  0  0  0  0  0  0  0  0  0  0  0
  -33.7658  144.1922    1.6720 H   0  0  0  0  0  0  0  0  0  0  0  0
  -31.3902  144.6622    2.2002 H   0  0  0  0  0  0  0  0  0  0  0  0
  -31.6966  143.7517    0.6824 H   0  0  0  0  0  0  0  0  0  0  0  0
  -30.5567  145.1400    0.6824 H   0  0  0  0  0  0  0  0  0  0  0  0
  -31.9584  147.2310   -0.4406 H   0  0  0  0  0  0  0  0  0  0  0  0
  -31.7824  145.5385   -1.1244 H   0  0  0  0  0  0  0  0  0  0  0  0
  -34.4179  147.0428   -0.7993 H   0  0  0  0  0  0  0  0  0  0  0  0
  -33.4913  146.8506   -2.3357 H   0  0  0  0  0  0  0  0  0  0  0  0
  -38.5136  144.5490    1.3797 H   0  0  0  0  0  0  0  0  0  0  0  0
  -38.0775  145.4982    3.6313 H   0  0  0  0  0  0  0  0  0  0  0  0
  -39.3462  148.5253    6.1594 H   0  0  0  0  0  0  0  0  0  0  0  0
  -41.7001  149.2108    5.7036 H   0  0  0  0  0  0  0  0  0  0  0  0
  -42.2526  150.4776    3.6292 H   0  0  0  0  0  0  0  0  0  0  0  0
  -40.4558  151.0523    1.9991 H   0  0  0  0  0  0  0  0  0  0  0  0
  -38.0993  150.3711    2.4461 H   0  0  0  0  0  0  0  0  0  0  0  0
  1  2  1  0
  2  3  1  0
  3  4  2  0
  3  5  1  0
  5  6  1  0
  6  7  2  0
  7  8  1  0
  8  9  2  0
  9 10  1  0
  9 11  1  0
 11 12  1  0
 12 13  2  0
 12 14  1  0
 14 15  2  0
 15 16  1  0
 16 17  1  0
 17 18  1  0
 18 19  2  0
 19 20  1  0
 20 21  1  0
 21 22  1  0
 21 23  1  0
 23 24  2  0
 23 25  1  0
 25 26  1  0
 26 27  1  0
 27 28  1  0
 28 29  1  0
 29 30  1  0
 29 31  1  0
 31 32  1  0
 20 33  2  0
 33 34  1  0
 15 35  1  0
 35 36  2  0
 36 37  1  0
 37 38  2  0
 38 39  1  0
 39 40  2  0
 10  5  2  0
 34 17  2  0
 40 35  1  0
 14  8  1  0
 32 26  1  0
  1 41  1  0
  1 42  1  0
  1 43  1  0
  6 44  1  0
  7 45  1  0
 10 46  1  0
 11 47  1  0
 16 48  1  0
 18 49  1  0
 19 50  1  0
 22 51  1  0
 22 52  1  0
 22 53  1  0
 25 54  1  0
 25 55  1  0
 27 56  1  0
 27 57  1  0
 28 58  1  0
 28 59  1  0
 30 60  1  0
 30 61  1  0
 30 62  1  0
 31 63  1  0
 31 64  1  0
 32 65  1  0
 32 66  1  0
 33 67  1  0
 34 68  1  0
 36 69  1  0
 37 70  1  0
 38 71  1  0
 39 72  1  0
 40 73  1  0
M  END
>  <meeko>  (4) 
{"is_sidechain": false}

>  <vina_affinity_kcal_mol>  (4) 
-8.245

>  <pose_rank>  (4) 
4

$$$$

     RDKit          3D

 73 77  0  0  0  0  0  0  0  0999 V2000
  -36.5920  157.7540    4.4390 C   0  0  0  0  0  0  0  0  0  0  0  0
  -37.2070  156.9300    5.4310 O   0  0  0  0  0  0  0  0  0  0  0  0
  -36.3250  156.2760    6.2260 C   0  0  0  0  0  0  0  0  0  0  0  0
  -35.4940  156.7960    6.9540 O   0  0  0  0  0  0  0  0  0  0  0  0
  -36.4960  154.8020    6.1050 C   0  0  0  0  0  0  0  0  0  0  0  0
  -37.5330  154.2240    5.3400 C   0  0  0  0  0  0  0  0  0  0  0  0
  -37.6710  152.8300    5.2430 C   0  0  0  0  0  0  0  0  0  0  0  0
  -36.7690  152.0220    5.9140 C   0  0  0  0  0  0  0  0  0  0  0  0
  -35.7480  152.6140    6.6680 C   0  0  0  0  0  0  0  0  0  0  0  0
  -35.5860  153.9820    6.7820 C   0  0  0  0  0  0  0  0  0  0  0  0
  -34.9490  151.6460    7.2640 N   0  0  0  0  0  0  0  0  0  0  0  0
  -35.3870  150.3740    6.9550 C   0  0  0  0  0  0  0  0  0  0  0  0
  -34.9160  149.3200    7.3420 O   0  0  0  0  0  0  0  0  0  0  0  0
  -36.5840  150.5640    6.0520 C   0  0  0  0  0  0  0  0  0  0  0  0
  -37.2510  149.4910    5.5640 C   0  0  0  0  0  0  0  0  0  0  0  0
  -36.8670  148.1630    5.8000 N   0  0  0  0  0  0  0  0  0  0  0  0
  -36.2270  147.3180    4.8650 C   0  0  0  0  0  0  0  0  0  0  0  0
  -35.0310  147.6690    4.2440 C   0  0  0  0  0  0  0  0  0  0  0  0
  -34.4450  146.8320    3.2830 C   0  0  0  0  0  0  0  0  0  0  0  0
  -35.0370  145.6140    2.9070 C   0  0  0  0  0  0  0  0  0  0  0  0
  -34.4250  144.7740    1.9020 N   0  0  0  0  0  0  0  0  0  0  0  0
  -35.2190  143.6430    1.4140 C   0  0  0  0  0  0  0  0  0  0  0  0
  -33.1630  145.0850    1.3360 C   0  0  0  0  0  0  0  0  0  0  0  0
  -32.0960  144.6120    1.7340 O   0  0  0  0  0  0  0  0  0  0  0  0
  -33.1850  146.0950    0.1600 C   0  0  0  0  0  0  0  0  0  0  0  0
  -34.5190  146.5100   -0.3120 N   0  0  0  0  0  0  0  0  0  0  0  0
  -34.9180  145.9200   -1.6020 C   0  0  0  0  0  0  0  0  0  0  0  0
  -35.4010  146.9370   -2.6670 C   0  0  0  0  0  0  0  0  0  0  0  0
  -36.3930  147.9220   -2.1970 N   0  0  0  0  0  0  0  0  0  0  0  0
  -37.7600  147.4390   -2.3670 C   0  0  0  0  0  0  0  0  0  0  0  0
  -36.1460  148.3170   -0.7940 C   0  0  0  0  0  0  0  0  0  0  0  0
  -34.7350  147.9630   -0.2700 C   0  0  0  0  0  0  0  0  0  0  0  0
  -36.2430  145.2780    3.5320 C   0  0  0  0  0  0  0  0  0  0  0  0
  -36.8300  146.1150    4.4930 C   0  0  0  0  0  0  0  0  0  0  0  0
  -38.4280  149.7170    4.6970 C   0  0  0  0  0  0  0  0  0  0  0  0
  -38.2810  149.7980    3.3050 C   0  0  0  0  0  0  0  0  0  0  0  0
  -39.3970  150.0030    2.4920 C   0  0  0  0  0  0  0  0  0  0  0  0
  -40.6630  150.1270    3.0630 C   0  0  0  0  0  0  0  0  0  0  0  0
  -40.8180  150.0520    4.4470 C   0  0  0  0  0  0  0  0  0  0  0  0
  -39.7040  149.8480    5.2630 C   0  0  0  0  0  0  0  0  0  0  0  0
  -36.0035  158.5425    4.9308 H   0  0  0  0  0  0  0  0  0  0  0  0
  -35.9297  157.1397    3.8112 H   0  0  0  0  0  0  0  0  0  0  0  0
  -37.3693  158.2141    3.8112 H   0  0  0  0  0  0  0  0  0  0  0  0
  -38.2439  154.8763    4.8117 H   0  0  0  0  0  0  0  0  0  0  0  0
  -38.4812  152.3879    4.6446 H   0  0  0  0  0  0  0  0  0  0  0  0
  -34.7709  154.4109    7.3834 H   0  0  0  0  0  0  0  0  0  0  0  0
  -34.1550  151.8190    7.8630 H   0  0  0  0  0  0  0  0  0  0  0  0
  -37.6070  147.6510    6.2960 H   0  0  0  0  0  0  0  0  0  0  0  0
  -34.5389  148.6159    4.5108 H   0  0  0  0  0  0  0  0  0  0  0  0
  -33.4987  147.1364    2.8120 H   0  0  0  0  0  0  0  0  0  0  0  0
  -35.6161  143.0774    2.2698 H   0  0  0  0  0  0  0  0  0  0  0  0
  -36.0535  144.0174    0.8030 H   0  0  0  0  0  0  0  0  0  0  0  0
  -34.5834  142.9853    0.8030 H   0  0  0  0  0  0  0  0  0  0  0  0
  -32.6462  146.9982    0.4822 H   0  0  0  0  0  0  0  0  0  0  0  0
  -32.7202  145.5716   -0.6886 H   0  0  0  0  0  0  0  0  0  0  0  0
  -34.0516  145.3812   -2.0131 H   0  0  0  0  0  0  0  0  0  0  0  0
  -35.7775  145.2676   -1.3884 H   0  0  0  0  0  0  0  0  0  0  0  0
  -34.5223  147.4884   -3.0328 H   0  0  0  0  0  0  0  0  0  0  0  0
  -35.9065  146.3450   -3.4442 H   0  0  0  0  0  0  0  0  0  0  0  0
  -38.2172  147.2774   -1.3797 H   0  0  0  0  0  0  0  0  0  0  0  0
  -38.3456  148.1846   -2.9247 H   0  0  0  0  0  0  0  0  0  0  0  0
  -37.7472  146.4910   -2.9247 H   0  0  0  0  0  0  0  0  0  0  0  0
  -36.2793  149.4060   -0.7146 H   0  0  0  0  0  0  0  0  0  0  0  0
  -36.8608  147.7515   -0.1781 H   0  0  0  0  0  0  0  0  0  0  0  0
  -33.9807  148.4593   -0.8983 H   0  0  0  0  0  0  0  0  0  0  0  0
  -34.6464  148.3055    0.7716 H   0  0  0  0  0  0  0  0  0  0  0  0
  -36.7426  144.3355    3.2636 H   0  0  0  0  0  0  0  0  0  0  0  0
  -37.7805  145.8187    4.9608 H   0  0  0  0  0  0  0  0  0  0  0  0
  -37.2833  149.6997    2.8523 H   0  0  0  0  0  0  0  0  0  0  0  0
  -39.2776  150.0668    1.4004 H   0  0  0  0  0  0  0  0  0  0  0  0
  -41.5417  150.2844    2.4203 H   0  0  0  0  0  0  0  0  0  0  0  0
  -41.8174  150.1535    4.8952 H   0  0  0  0  0  0  0  0  0  0  0  0
  -39.8277  149.7898    6.3545 H   0  0  0  0  0  0  0  0  0  0  0  0
  1  2  1  0
  2  3  1  0
  3  4  2  0
  3  5  1  0
  5  6  1  0
  6  7  2  0
  7  8  1  0
  8  9  2  0
  9 10  1  0
  9 11  1  0
 11 12  1  0
 12 13  2  0
 12 14  1  0
 14 15  2  0
 15 16  1  0
 16 17  1  0
 17 18  1  0
 18 19  2  0
 19 20  1  0
 20 21  1  0
 21 22  1  0
 21 23  1  0
 23 24  2  0
 23 25  1  0
 25 26  1  0
 26 27  1  0
 27 28  1  0
 28 29  1  0
 29 30  1  0
 29 31  1  0
 31 32  1  0
 20 33  2  0
 33 34  1  0
 15 35  1  0
 35 36  2  0
 36 37  1  0
 37 38  2  0
 38 39  1  0
 39 40  2  0
 10  5  2  0
 34 17  2  0
 40 35  1  0
 14  8  1  0
 32 26  1  0
  1 41  1  0
  1 42  1  0
  1 43  1  0
  6 44  1  0
  7 45  1  0
 10 46  1  0
 11 47  1  0
 16 48  1  0
 18 49  1  0
 19 50  1  0
 22 51  1  0
 22 52  1  0
 22 53  1  0
 25 54  1  0
 25 55  1  0
 27 56  1  0
 27 57  1  0
 28 58  1  0
 28 59  1  0
 30 60  1  0
 30 61  1  0
 30 62  1  0
 31 63  1  0
 31 64  1  0
 32 65  1  0
 32 66  1  0
 33 67  1  0
 34 68  1  0
 36 69  1  0
 37 70  1  0
 38 71  1  0
 39 72  1  0
 40 73  1  0
M  END
>  <meeko>  (5) 
{"is_sidechain": false}

>  <vina_affinity_kcal_mol>  (5) 
-8.144

>  <pose_rank>  (5) 
5

$$$$

     RDKit          3D

 73 77  0  0  0  0  0  0  0  0999 V2000
  -41.6070  145.9900   -7.5220 C   0  0  0  0  0  0  0  0  0  0  0  0
  -42.3760  145.5510   -6.4010 O   0  0  0  0  0  0  0  0  0  0  0  0
  -42.5820  146.5110   -5.4660 C   0  0  0  0  0  0  0  0  0  0  0  0
  -43.4240  147.3940   -5.5180 O   0  0  0  0  0  0  0  0  0  0  0  0
  -41.6310  146.3560   -4.3310 C   0  0  0  0  0  0  0  0  0  0  0  0
  -40.3750  147.0010   -4.3070 C   0  0  0  0  0  0  0  0  0  0  0  0
  -39.4970  146.8370   -3.2240 C   0  0  0  0  0  0  0  0  0  0  0  0
  -39.8810  146.0270   -2.1700 C   0  0  0  0  0  0  0  0  0  0  0  0
  -41.1320  145.3960   -2.2110 C   0  0  0  0  0  0  0  0  0  0  0  0
  -42.0170  145.5370   -3.2630 C   0  0  0  0  0  0  0  0  0  0  0  0
  -41.3370  144.6290   -1.0710 N   0  0  0  0  0  0  0  0  0  0  0  0
  -40.2520  144.6970   -0.2200 C   0  0  0  0  0  0  0  0  0  0  0  0
  -40.1150  144.1190    0.8450 O   0  0  0  0  0  0  0  0  0  0  0  0
  -39.2620  145.6200   -0.8930 C   0  0  0  0  0  0  0  0  0  0  0  0
  -38.0760  145.9000   -0.3030 C   0  0  0  0  0  0  0  0  0  0  0  0
  -37.7030  145.4210    0.9620 N   0  0  0  0  0  0  0  0  0  0  0  0
  -37.5250  146.2150    2.1170 C   0  0  0  0  0  0  0  0  0  0  0  0
  -38.5780  146.9040    2.7140 C   0  0  0  0  0  0  0  0  0  0  0  0
  -38.3610  147.7240    3.8310 C   0  0  0  0  0  0  0  0  0  0  0  0
  -37.0820  147.8860    4.3900 C   0  0  0  0  0  0  0  0  0  0  0  0
  -36.8780  148.7500    5.5320 N   0  0  0  0  0  0  0  0  0  0  0  0
  -36.7270  148.0960    6.8350 C   0  0  0  0  0  0  0  0  0  0  0  0
  -36.7240  150.1510    5.3900 C   0  0  0  0  0  0  0  0  0  0  0  0
  -37.6020  150.8990    4.9540 O   0  0  0  0  0  0  0  0  0  0  0  0
  -35.3450  150.7210    5.8100 C   0  0  0  0  0  0  0  0  0  0  0  0
  -35.2300  152.1910    5.8320 N   0  0  0  0  0  0  0  0  0  0  0  0
  -33.9770  152.7120    5.2580 C   0  0  0  0  0  0  0  0  0  0  0  0
  -33.2050  153.7060    6.1630 C   0  0  0  0  0  0  0  0  0  0  0  0
  -34.0170  154.7880    6.7510 N   0  0  0  0  0  0  0  0  0  0  0  0
  -34.0640  155.9630    5.8860 C   0  0  0  0  0  0  0  0  0  0  0  0
  -35.3810  154.3250    7.0830 C   0  0  0  0  0  0  0  0  0  0  0  0
  -35.5390  152.7880    7.1380 C   0  0  0  0  0  0  0  0  0  0  0  0
  -36.0320  147.1950    3.7750 C   0  0  0  0  0  0  0  0  0  0  0  0
  -36.2480  146.3750    2.6570 C   0  0  0  0  0  0  0  0  0  0  0  0
  -37.1270  146.7950   -1.0000 C   0  0  0  0  0  0  0  0  0  0  0  0
  -36.1900  146.2740   -1.9030 C   0  0  0  0  0  0  0  0  0  0  0  0
  -35.3020  147.1250   -2.5640 C   0  0  0  0  0  0  0  0  0  0  0  0
  -35.3460  148.4990   -2.3270 C   0  0  0  0  0  0  0  0  0  0  0  0
  -36.2720  149.0250   -1.4270 C   0  0  0  0  0  0  0  0  0  0  0  0
  -37.1610  148.1770   -0.7640 C   0  0  0  0  0  0  0  0  0  0  0  0
  -40.7029  146.5062   -7.1669 H   0  0  0  0  0  0  0  0  0  0  0  0
  -41.3177  145.1210   -8.1312 H   0  0  0  0  0  0  0  0  0  0  0  0
  -42.2083  146.6809   -8.1312 H   0  0  0  0  0  0  0  0  0  0  0  0
  -40.0798  147.6423   -5.1506 H   0  0  0  0  0  0  0  0  0  0  0  0
  -38.5207  147.3437   -3.2135 H   0  0  0  0  0  0  0  0  0  0  0  0
  -42.9901  145.0240   -3.2614 H   0  0  0  0  0  0  0  0  0  0  0  0
  -42.1540  144.0720   -0.8700 H   0  0  0  0  0  0  0  0  0  0  0  0
  -36.9470  144.7310    0.8820 H   0  0  0  0  0  0  0  0  0  0  0  0
  -39.5937  146.8037    2.3038 H   0  0  0  0  0  0  0  0  0  0  0  0
  -39.2137  148.2537    4.2809 H   0  0  0  0  0  0  0  0  0  0  0  0
  -36.8966  148.8307    7.6359 H   0  0  0  0  0  0  0  0  0  0  0  0
  -37.4606  147.2812    6.9235 H   0  0  0  0  0  0  0  0  0  0  0  0
  -35.7104  147.6853    6.9235 H   0  0  0  0  0  0  0  0  0  0  0  0
  -35.1226  150.3513    6.8219 H   0  0  0  0  0  0  0  0  0  0  0  0
  -34.6376  150.3808    5.0394 H   0  0  0  0  0  0  0  0  0  0  0  0
  -33.3165  151.8577    5.0485 H   0  0  0  0  0  0  0  0  0  0  0  0
  -34.2624  153.2748    4.3570 H   0  0  0  0  0  0  0  0  0  0  0  0
  -32.7536  153.1342    6.9872 H   0  0  0  0  0  0  0  0  0  0  0  0
  -32.4684  154.1994    5.5119 H   0  0  0  0  0  0  0  0  0  0  0  0
  -34.1004  156.8722    6.5042 H   0  0  0  0  0  0  0  0  0  0  0  0
  -33.1661  155.9870    5.2510 H   0  0  0  0  0  0  0  0  0  0  0  0
  -34.9610  155.9152    5.2510 H   0  0  0  0  0  0  0  0  0  0  0  0
  -35.6530  154.7341    8.0672 H   0  0  0  0  0  0  0  0  0  0  0  0
  -36.0377  154.6790    6.2746 H   0  0  0  0  0  0  0  0  0  0  0  0
  -34.8516  152.3804    7.8939 H   0  0  0  0  0  0  0  0  0  0  0  0
  -36.5794  152.5470    7.4016 H   0  0  0  0  0  0  0  0  0  0  0  0
  -35.0134  147.2970    4.1774 H   0  0  0  0  0  0  0  0  0  0  0  0
  -35.3971  145.8498    2.1987 H   0  0  0  0  0  0  0  0  0  0  0  0
  -36.1541  145.1909   -2.0916 H   0  0  0  0  0  0  0  0  0  0  0  0
  -34.5679  146.7120   -3.2715 H   0  0  0  0  0  0  0  0  0  0  0  0
  -34.6486  149.1689   -2.8513 H   0  0  0  0  0  0  0  0  0  0  0  0
  -36.3021  150.1084   -1.2393 H   0  0  0  0  0  0  0  0  0  0  0  0
  -37.8905  148.5942   -0.0542 H   0  0  0  0  0  0  0  0  0  0  0  0
  1  2  1  0
  2  3  1  0
  3  4  2  0
  3  5  1  0
  5  6  1  0
  6  7  2  0
  7  8  1  0
  8  9  2  0
  9 10  1  0
  9 11  1  0
 11 12  1  0
 12 13  2  0
 12 14  1  0
 14 15  2  0
 15 16  1  0
 16 17  1  0
 17 18  1  0
 18 19  2  0
 19 20  1  0
 20 21  1  0
 21 22  1  0
 21 23  1  0
 23 24  2  0
 23 25  1  0
 25 26  1  0
 26 27  1  0
 27 28  1  0
 28 29  1  0
 29 30  1  0
 29 31  1  0
 31 32  1  0
 20 33  2  0
 33 34  1  0
 15 35  1  0
 35 36  2  0
 36 37  1  0
 37 38  2  0
 38 39  1  0
 39 40  2  0
 10  5  2  0
 34 17  2  0
 40 35  1  0
 14  8  1  0
 32 26  1  0
  1 41  1  0
  1 42  1  0
  1 43  1  0
  6 44  1  0
  7 45  1  0
 10 46  1  0
 11 47  1  0
 16 48  1  0
 18 49  1  0
 19 50  1  0
 22 51  1  0
 22 52  1  0
 22 53  1  0
 25 54  1  0
 25 55  1  0
 27 56  1  0
 27 57  1  0
 28 58  1  0
 28 59  1  0
 30 60  1  0
 30 61  1  0
 30 62  1  0
 31 63  1  0
 31 64  1  0
 32 65  1  0
 32 66  1  0
 33 67  1  0
 34 68  1  0
 36 69  1  0
 37 70  1  0
 38 71  1  0
 39 72  1  0
 40 73  1  0
M  END
>  <meeko>  (6) 
{"is_sidechain": false}

>  <vina_affinity_kcal_mol>  (6) 
-8.124

>  <pose_rank>  (6) 
6

$$$$

     RDKit          3D

 73 77  0  0  0  0  0  0  0  0999 V2000
  -36.0650  157.8140    6.7870 C   0  0  0  0  0  0  0  0  0  0  0  0
  -36.3740  156.5300    7.3340 O   0  0  0  0  0  0  0  0  0  0  0  0
  -35.3720  155.6260    7.2150 C   0  0  0  0  0  0  0  0  0  0  0  0
  -34.1990  155.8140    7.4970 O   0  0  0  0  0  0  0  0  0  0  0  0
  -35.8860  154.3340    6.6840 C   0  0  0  0  0  0  0  0  0  0  0  0
  -35.4090  153.0860    7.1420 C   0  0  0  0  0  0  0  0  0  0  0  0
  -35.9120  151.8820    6.6240 C   0  0  0  0  0  0  0  0  0  0  0  0
  -36.8910  151.9340    5.6470 C   0  0  0  0  0  0  0  0  0  0  0  0
  -37.3520  153.1810    5.2040 C   0  0  0  0  0  0  0  0  0  0  0  0
  -36.8760  154.3830    5.6960 C   0  0  0  0  0  0  0  0  0  0  0  0
  -38.3270  153.0290    4.2270 N   0  0  0  0  0  0  0  0  0  0  0  0
  -38.5650  151.6960    3.9590 C   0  0  0  0  0  0  0  0  0  0  0  0
  -39.3410  151.2380    3.1390 O   0  0  0  0  0  0  0  0  0  0  0  0
  -37.6480  150.9250    4.8810 C   0  0  0  0  0  0  0  0  0  0  0  0
  -37.6420  149.5720    4.8660 C   0  0  0  0  0  0  0  0  0  0  0  0
  -38.4950  148.7980    4.0650 N   0  0  0  0  0  0  0  0  0  0  0  0
  -38.3070  148.5290    2.6900 C   0  0  0  0  0  0  0  0  0  0  0  0
  -39.3380  148.0680    1.8750 C   0  0  0  0  0  0  0  0  0  0  0  0
  -39.1080  147.7620    0.5260 C   0  0  0  0  0  0  0  0  0  0  0  0
  -37.8370  147.9030   -0.0560 C   0  0  0  0  0  0  0  0  0  0  0  0
  -37.6170  147.5660   -1.4450 N   0  0  0  0  0  0  0  0  0  0  0  0
  -38.6610  146.7750   -2.1040 C   0  0  0  0  0  0  0  0  0  0  0  0
  -36.5030  148.0600   -2.1670 C   0  0  0  0  0  0  0  0  0  0  0  0
  -36.4290  149.2060   -2.6170 O   0  0  0  0  0  0  0  0  0  0  0  0
  -35.3440  147.0530   -2.3850 C   0  0  0  0  0  0  0  0  0  0  0  0
  -34.8640  146.3480   -1.1820 N   0  0  0  0  0  0  0  0  0  0  0  0
  -33.5620  146.8200   -0.6800 C   0  0  0  0  0  0  0  0  0  0  0  0
  -32.5060  145.7090   -0.4490 C   0  0  0  0  0  0  0  0  0  0  0  0
  -32.9800  144.5340    0.3070 N   0  0  0  0  0  0  0  0  0  0  0  0
  -32.7880  144.7020    1.7450 C   0  0  0  0  0  0  0  0  0  0  0  0
  -34.3900  144.2210   -0.0020 C   0  0  0  0  0  0  0  0  0  0  0  0
  -34.9250  144.8840   -1.2930 C   0  0  0  0  0  0  0  0  0  0  0  0
  -36.8070  148.3580    0.7770 C   0  0  0  0  0  0  0  0  0  0  0  0
  -37.0370  148.6640    2.1270 C   0  0  0  0  0  0  0  0  0  0  0  0
  -36.7200  148.8520    5.7710 C   0  0  0  0  0  0  0  0  0  0  0  0
  -37.1420  148.4530    7.0470 C   0  0  0  0  0  0  0  0  0  0  0  0
  -36.2690  147.7670    7.8940 C   0  0  0  0  0  0  0  0  0  0  0  0
  -34.9730  147.4760    7.4710 C   0  0  0  0  0  0  0  0  0  0  0  0
  -34.5430  147.8730    6.2050 C   0  0  0  0  0  0  0  0  0  0  0  0
  -35.4130  148.5600    5.3570 C   0  0  0  0  0  0  0  0  0  0  0  0
  -35.8929  158.5292    7.6048 H   0  0  0  0  0  0  0  0  0  0  0  0
  -35.1589  157.7403    6.1676 H   0  0  0  0  0  0  0  0  0  0  0  0
  -36.9054  158.1606    6.1676 H   0  0  0  0  0  0  0  0  0  0  0  0
  -34.6299  153.0569    7.9180 H   0  0  0  0  0  0  0  0  0  0  0  0
  -35.5349  150.9149    6.9880 H   0  0  0  0  0  0  0  0  0  0  0  0
  -37.2620  155.3435    5.3238 H   0  0  0  0  0  0  0  0  0  0  0  0
  -38.8050  153.7760    3.7450 H   0  0  0  0  0  0  0  0  0  0  0  0
  -39.4790  149.0260    4.2530 H   0  0  0  0  0  0  0  0  0  0  0  0
  -40.3467  147.9422    2.2954 H   0  0  0  0  0  0  0  0  0  0  0  0
  -39.9438  147.4025   -0.0922 H   0  0  0  0  0  0  0  0  0  0  0  0
  -39.2936  146.2957   -1.3424 H   0  0  0  0  0  0  0  0  0  0  0  0
  -39.2787  147.4338   -2.7320 H   0  0  0  0  0  0  0  0  0  0  0  0
  -38.1939  146.0021   -2.7320 H   0  0  0  0  0  0  0  0  0  0  0  0
  -35.6878  146.2951   -3.1043 H   0  0  0  0  0  0  0  0  0  0  0  0
  -34.4919  147.6537   -2.7359 H   0  0  0  0  0  0  0  0  0  0  0  0
  -33.1527  147.5329   -1.4110 H   0  0  0  0  0  0  0  0  0  0  0  0
  -33.7570  147.2679    0.3056 H   0  0  0  0  0  0  0  0  0  0  0  0
  -32.1576  145.3618   -1.4329 H   0  0  0  0  0  0  0  0  0  0  0  0
  -31.7146  146.1652    0.1639 H   0  0  0  0  0  0  0  0  0  0  0  0
  -33.5083  144.0717    2.2872 H   0  0  0  0  0  0  0  0  0  0  0  0
  -31.7641  144.4045    2.0154 H   0  0  0  0  0  0  0  0  0  0  0  0
  -32.9470  145.7563    2.0154 H   0  0  0  0  0  0  0  0  0  0  0  0
  -34.4841  143.1305   -0.1112 H   0  0  0  0  0  0  0  0  0  0  0  0
  -34.9894  144.6229    0.8282 H   0  0  0  0  0  0  0  0  0  0  0  0
  -34.3125  144.5597   -2.1472 H   0  0  0  0  0  0  0  0  0  0  0  0
  -35.9721  144.5814   -1.4412 H   0  0  0  0  0  0  0  0  0  0  0  0
  -35.7948  148.4782    0.3635 H   0  0  0  0  0  0  0  0  0  0  0  0
  -36.2028  149.0160    2.7517 H   0  0  0  0  0  0  0  0  0  0  0  0
  -38.1645  148.6811    7.3822 H   0  0  0  0  0  0  0  0  0  0  0  0
  -36.6039  147.4564    8.8947 H   0  0  0  0  0  0  0  0  0  0  0  0
  -34.2876  146.9318    8.1375 H   0  0  0  0  0  0  0  0  0  0  0  0
  -33.5188  147.6448    5.8751 H   0  0  0  0  0  0  0  0  0  0  0  0
  -35.0716  148.8737    4.3595 H   0  0  0  0  0  0  0  0  0  0  0  0
  1  2  1  0
  2  3  1  0
  3  4  2  0
  3  5  1  0
  5  6  1  0
  6  7  2  0
  7  8  1  0
  8  9  2  0
  9 10  1  0
  9 11  1  0
 11 12  1  0
 12 13  2  0
 12 14  1  0
 14 15  2  0
 15 16  1  0
 16 17  1  0
 17 18  1  0
 18 19  2  0
 19 20  1  0
 20 21  1  0
 21 22  1  0
 21 23  1  0
 23 24  2  0
 23 25  1  0
 25 26  1  0
 26 27  1  0
 27 28  1  0
 28 29  1  0
 29 30  1  0
 29 31  1  0
 31 32  1  0
 20 33  2  0
 33 34  1  0
 15 35  1  0
 35 36  2  0
 36 37  1  0
 37 38  2  0
 38 39  1  0
 39 40  2  0
 10  5  2  0
 34 17  2  0
 40 35  1  0
 14  8  1  0
 32 26  1  0
  1 41  1  0
  1 42  1  0
  1 43  1  0
  6 44  1  0
  7 45  1  0
 10 46  1  0
 11 47  1  0
 16 48  1  0
 18 49  1  0
 19 50  1  0
 22 51  1  0
 22 52  1  0
 22 53  1  0
 25 54  1  0
 25 55  1  0
 27 56  1  0
 27 57  1  0
 28 58  1  0
 28 59  1  0
 30 60  1  0
 30 61  1  0
 30 62  1  0
 31 63  1  0
 31 64  1  0
 32 65  1  0
 32 66  1  0
 33 67  1  0
 34 68  1  0
 36 69  1  0
 37 70  1  0
 38 71  1  0
 39 72  1  0
 40 73  1  0
M  END
>  <meeko>  (7) 
{"is_sidechain": false}

>  <vina_affinity_kcal_mol>  (7) 
-8.024

>  <pose_rank>  (7) 
7

$$$$

     RDKit          3D

 73 77  0  0  0  0  0  0  0  0999 V2000
  -33.7910  156.0630    6.2280 C   0  0  0  0  0  0  0  0  0  0  0  0
  -34.5120  155.6720    7.3980 O   0  0  0  0  0  0  0  0  0  0  0  0
  -35.8440  155.5170    7.1970 C   0  0  0  0  0  0  0  0  0  0  0  0
  -36.6920  156.3880    7.3120 O   0  0  0  0  0  0  0  0  0  0  0  0
  -36.1600  154.1160    6.8070 C   0  0  0  0  0  0  0  0  0  0  0  0
  -35.5810  153.0030    7.4560 C   0  0  0  0  0  0  0  0  0  0  0  0
  -35.8980  151.6920    7.0680 C   0  0  0  0  0  0  0  0  0  0  0  0
  -36.7920  151.5010    6.0290 C   0  0  0  0  0  0  0  0  0  0  0  0
  -37.3560  152.6170    5.3970 C   0  0  0  0  0  0  0  0  0  0  0  0
  -37.0650  153.9200    5.7570 C   0  0  0  0  0  0  0  0  0  0  0  0
  -38.2240  152.2260    4.3850 N   0  0  0  0  0  0  0  0  0  0  0  0
  -38.2840  150.8510    4.2790 C   0  0  0  0  0  0  0  0  0  0  0  0
  -38.9320  150.2030    3.4760 O   0  0  0  0  0  0  0  0  0  0  0  0
  -37.3630  150.3190    5.3530 C   0  0  0  0  0  0  0  0  0  0  0  0
  -37.2000  148.9850    5.5170 C   0  0  0  0  0  0  0  0  0  0  0  0
  -37.8890  148.0190    4.7690 N   0  0  0  0  0  0  0  0  0  0  0  0
  -37.2960  147.1010    3.8730 C   0  0  0  0  0  0  0  0  0  0  0  0
  -37.4040  145.7230    4.0410 C   0  0  0  0  0  0  0  0  0  0  0  0
  -36.7630  144.8370    3.1630 C   0  0  0  0  0  0  0  0  0  0  0  0
  -35.9880  145.2990    2.0860 C   0  0  0  0  0  0  0  0  0  0  0  0
  -35.3210  144.3680    1.2020 N   0  0  0  0  0  0  0  0  0  0  0  0
  -35.7920  142.9810    1.2280 C   0  0  0  0  0  0  0  0  0  0  0  0
  -34.3320  144.7920    0.2800 C   0  0  0  0  0  0  0  0  0  0  0  0
  -33.2420  145.2640    0.6090 O   0  0  0  0  0  0  0  0  0  0  0  0
  -34.7040  144.6420   -1.2180 C   0  0  0  0  0  0  0  0  0  0  0  0
  -35.2520  145.8440   -1.8730 N   0  0  0  0  0  0  0  0  0  0  0  0
  -34.4410  147.0610   -1.6870 C   0  0  0  0  0  0  0  0  0  0  0  0
  -35.2200  148.2950   -1.1650 C   0  0  0  0  0  0  0  0  0  0  0  0
  -36.4810  148.5920   -1.8710 N   0  0  0  0  0  0  0  0  0  0  0  0
  -36.2700  149.4870   -3.0050 C   0  0  0  0  0  0  0  0  0  0  0  0
  -37.1700  147.3560   -2.2990 C   0  0  0  0  0  0  0  0  0  0  0  0
  -36.6760  146.0720   -1.5920 C   0  0  0  0  0  0  0  0  0  0  0  0
  -35.8800  146.6860    1.9330 C   0  0  0  0  0  0  0  0  0  0  0  0
  -36.5210  147.5730    2.8120 C   0  0  0  0  0  0  0  0  0  0  0  0
  -36.2780  148.5030    6.5680 C   0  0  0  0  0  0  0  0  0  0  0  0
  -36.7480  148.2470    7.8640 C   0  0  0  0  0  0  0  0  0  0  0  0
  -35.8740  147.7840    8.8490 C   0  0  0  0  0  0  0  0  0  0  0  0
  -34.5290  147.5740    8.5470 C   0  0  0  0  0  0  0  0  0  0  0  0
  -34.0530  147.8310    7.2620 C   0  0  0  0  0  0  0  0  0  0  0  0
  -34.9230  148.2950    6.2740 C   0  0  0  0  0  0  0  0  0  0  0  0
  -32.8595  156.5682    6.5231 H   0  0  0  0  0  0  0  0  0  0  0  0
  -33.5511  155.1714    5.6301 H   0  0  0  0  0  0  0  0  0  0  0  0
  -34.4074  156.7504    5.6301 H   0  0  0  0  0  0  0  0  0  0  0  0
  -34.8699  153.1665    8.2791 H   0  0  0  0  0  0  0  0  0  0  0  0
  -35.4438  150.8313    7.5808 H   0  0  0  0  0  0  0  0  0  0  0  0
  -37.5279  154.7718    5.2371 H   0  0  0  0  0  0  0  0  0  0  0  0
  -38.7450  152.8430    3.7790 H   0  0  0  0  0  0  0  0  0  0  0  0
  -38.7450  148.4150    4.3610 H   0  0  0  0  0  0  0  0  0  0  0  0
  -38.0007  145.3236    4.8743 H   0  0  0  0  0  0  0  0  0  0  0  0
  -36.8696  143.7537    3.3214 H   0  0  0  0  0  0  0  0  0  0  0  0
  -35.9040  142.6513    2.2714 H   0  0  0  0  0  0  0  0  0  0  0  0
  -36.7633  142.9139    0.7160 H   0  0  0  0  0  0  0  0  0  0  0  0
  -35.0624  142.3363    0.7160 H   0  0  0  0  0  0  0  0  0  0  0  0
  -33.7947  144.3474   -1.7624 H   0  0  0  0  0  0  0  0  0  0  0  0
  -35.5104  143.8945   -1.2492 H   0  0  0  0  0  0  0  0  0  0  0  0
  -33.6424  146.8318   -0.9660 H   0  0  0  0  0  0  0  0  0  0  0  0
  -34.0649  147.3346   -2.6838 H   0  0  0  0  0  0  0  0  0  0  0  0
  -35.4570  148.1232   -0.1047 H   0  0  0  0  0  0  0  0  0  0  0  0
  -34.5650  149.1619   -1.3365 H   0  0  0  0  0  0  0  0  0  0  0  0
  -36.0322  150.4958   -2.6366 H   0  0  0  0  0  0  0  0  0  0  0  0
  -35.4352  149.1137   -3.6164 H   0  0  0  0  0  0  0  0  0  0  0  0
  -37.1836  149.5258   -3.6164 H   0  0  0  0  0  0  0  0  0  0  0  0
  -38.2441  147.4714   -2.0917 H   0  0  0  0  0  0  0  0  0  0  0  0
  -36.9513  147.2291   -3.3695 H   0  0  0  0  0  0  0  0  0  0  0  0
  -36.8179  146.1793   -0.5065 H   0  0  0  0  0  0  0  0  0  0  0  0
  -37.2540  145.2148   -1.9677 H   0  0  0  0  0  0  0  0  0  0  0  0
  -35.2791  147.0902    1.1050 H   0  0  0  0  0  0  0  0  0  0  0  0
  -36.4110  148.6572    2.6625 H   0  0  0  0  0  0  0  0  0  0  0  0
  -37.8085  148.4115    8.1052 H   0  0  0  0  0  0  0  0  0  0  0  0
  -36.2467  147.5846    9.8645 H   0  0  0  0  0  0  0  0  0  0  0  0
  -33.8427  147.2052    9.3235 H   0  0  0  0  0  0  0  0  0  0  0  0
  -32.9909  147.6679    7.0266 H   0  0  0  0  0  0  0  0  0  0  0  0
  -34.5443  148.4981    5.2614 H   0  0  0  0  0  0  0  0  0  0  0  0
  1  2  1  0
  2  3  1  0
  3  4  2  0
  3  5  1  0
  5  6  1  0
  6  7  2  0
  7  8  1  0
  8  9  2  0
  9 10  1  0
  9 11  1  0
 11 12  1  0
 12 13  2  0
 12 14  1  0
 14 15  2  0
 15 16  1  0
 16 17  1  0
 17 18  1  0
 18 19  2  0
 19 20  1  0
 20 21  1  0
 21 22  1  0
 21 23  1  0
 23 24  2  0
 23 25  1  0
 25 26  1  0
 26 27  1  0
 27 28  1  0
 28 29  1  0
 29 30  1  0
 29 31  1  0
 31 32  1  0
 20 33  2  0
 33 34  1  0
 15 35  1  0
 35 36  2  0
 36 37  1  0
 37 38  2  0
 38 39  1  0
 39 40  2  0
 10  5  2  0
 34 17  2  0
 40 35  1  0
 14  8  1  0
 32 26  1  0
  1 41  1  0
  1 42  1  0
  1 43  1  0
  6 44  1  0
  7 45  1  0
 10 46  1  0
 11 47  1  0
 16 48  1  0
 18 49  1  0
 19 50  1  0
 22 51  1  0
 22 52  1  0
 22 53  1  0
 25 54  1  0
 25 55  1  0
 27 56  1  0
 27 57  1  0
 28 58  1  0
 28 59  1  0
 30 60  1  0
 30 61  1  0
 30 62  1  0
 31 63  1  0
 31 64  1  0
 32 65  1  0
 32 66  1  0
 33 67  1  0
 34 68  1  0
 36 69  1  0
 37 70  1  0
 38 71  1  0
 39 72  1  0
 40 73  1  0
M  END
>  <meeko>  (8) 
{"is_sidechain": false}

>  <vina_affinity_kcal_mol>  (8) 
-7.853

>  <pose_rank>  (8) 
8

$$$$

     RDKit          3D

 73 77  0  0  0  0  0  0  0  0999 V2000
  -41.6180  146.2540   -7.4140 C   0  0  0  0  0  0  0  0  0  0  0  0
  -42.4970  145.7810   -6.3920 O   0  0  0  0  0  0  0  0  0  0  0  0
  -42.6290  146.6300   -5.3430 C   0  0  0  0  0  0  0  0  0  0  0  0
  -43.4430  147.5360   -5.2530 O   0  0  0  0  0  0  0  0  0  0  0  0
  -41.6340  146.3170   -4.2810 C   0  0  0  0  0  0  0  0  0  0  0  0
  -40.4940  147.1200   -4.0560 C   0  0  0  0  0  0  0  0  0  0  0  0
  -39.5720  146.8020   -3.0470 C   0  0  0  0  0  0  0  0  0  0  0  0
  -39.7940  145.6800   -2.2690 C   0  0  0  0  0  0  0  0  0  0  0  0
  -40.9310  144.8950   -2.5070 C   0  0  0  0  0  0  0  0  0  0  0  0
  -41.8570  145.1830   -3.4920 C   0  0  0  0  0  0  0  0  0  0  0  0
  -40.9810  143.8180   -1.6310 N   0  0  0  0  0  0  0  0  0  0  0  0
  -39.8960  143.8170   -0.7760 C   0  0  0  0  0  0  0  0  0  0  0  0
  -39.6420  142.9940    0.0860 O   0  0  0  0  0  0  0  0  0  0  0  0
  -39.0840  145.0350   -1.1470 C   0  0  0  0  0  0  0  0  0  0  0  0
  -37.9400  145.3240   -0.4820 C   0  0  0  0  0  0  0  0  0  0  0  0
  -37.4610  144.5770    0.6050 N   0  0  0  0  0  0  0  0  0  0  0  0
  -37.0690  145.1080    1.8540 C   0  0  0  0  0  0  0  0  0  0  0  0
  -37.9950  145.4850    2.8240 C   0  0  0  0  0  0  0  0  0  0  0  0
  -37.5780  146.0560    4.0350 C   0  0  0  0  0  0  0  0  0  0  0  0
  -36.2180  146.2730    4.3190 C   0  0  0  0  0  0  0  0  0  0  0  0
  -35.8110  146.8780    5.5670 N   0  0  0  0  0  0  0  0  0  0  0  0
  -35.6500  145.9810    6.7140 C   0  0  0  0  0  0  0  0  0  0  0  0
  -35.4800  148.2530    5.6570 C   0  0  0  0  0  0  0  0  0  0  0  0
  -34.3990  148.7260    5.2970 O   0  0  0  0  0  0  0  0  0  0  0  0
  -36.5750  149.1680    6.2640 C   0  0  0  0  0  0  0  0  0  0  0  0
  -37.9060  149.0910    5.6330 N   0  0  0  0  0  0  0  0  0  0  0  0
  -38.0250  149.8440    4.3720 C   0  0  0  0  0  0  0  0  0  0  0  0
  -39.2280  150.8200    4.3020 C   0  0  0  0  0  0  0  0  0  0  0  0
  -40.5260  150.2550    4.7160 N   0  0  0  0  0  0  0  0  0  0  0  0
  -41.2390  149.6540    3.5920 C   0  0  0  0  0  0  0  0  0  0  0  0
  -40.3700  149.2830    5.8190 C   0  0  0  0  0  0  0  0  0  0  0  0
  -39.0140  149.3670    6.5580 C   0  0  0  0  0  0  0  0  0  0  0  0
  -35.3000  145.8980    3.3320 C   0  0  0  0  0  0  0  0  0  0  0  0
  -35.7170  145.3270    2.1190 C   0  0  0  0  0  0  0  0  0  0  0  0
  -37.1630  146.5170   -0.8840 C   0  0  0  0  0  0  0  0  0  0  0  0
  -36.1940  146.4280   -1.8930 C   0  0  0  0  0  0  0  0  0  0  0  0
  -35.4700  147.5590   -2.2730 C   0  0  0  0  0  0  0  0  0  0  0  0
  -35.7090  148.7830   -1.6490 C   0  0  0  0  0  0  0  0  0  0  0  0
  -36.6680  148.8790   -0.6410 C   0  0  0  0  0  0  0  0  0  0  0  0
  -37.3930  147.7500   -0.2570 C   0  0  0  0  0  0  0  0  0  0  0  0
  -40.7390  146.7270   -6.9517 H   0  0  0  0  0  0  0  0  0  0  0  0
  -41.2935  145.4087   -8.0386 H   0  0  0  0  0  0  0  0  0  0  0  0
  -42.1447  146.9905   -8.0386 H   0  0  0  0  0  0  0  0  0  0  0  0
  -40.3262  148.0090   -4.6818 H   0  0  0  0  0  0  0  0  0  0  0  0
  -38.6879  147.4342   -2.8777 H   0  0  0  0  0  0  0  0  0  0  0  0
  -42.7379  144.5435   -3.6500 H   0  0  0  0  0  0  0  0  0  0  0  0
  -41.6950  143.1050   -1.6080 H   0  0  0  0  0  0  0  0  0  0  0  0
  -36.7880  143.8670    0.2910 H   0  0  0  0  0  0  0  0  0  0  0  0
  -39.0683  145.3327    2.6374 H   0  0  0  0  0  0  0  0  0  0  0  0
  -38.3338  146.3413    4.7816 H   0  0  0  0  0  0  0  0  0  0  0  0
  -35.7532  146.5557    7.6462 H   0  0  0  0  0  0  0  0  0  0  0  0
  -36.4220  145.1982    6.6785 H   0  0  0  0  0  0  0  0  0  0  0  0
  -34.6540  145.5156    6.6785 H   0  0  0  0  0  0  0  0  0  0  0  0
  -36.6892  148.8980    7.3242 H   0  0  0  0  0  0  0  0  0  0  0  0
  -36.2268  150.1979    6.0962 H   0  0  0  0  0  0  0  0  0  0  0  0
  -37.1032  150.4284    4.2353 H   0  0  0  0  0  0  0  0  0  0  0  0
  -38.1896  149.0964    3.5821 H   0  0  0  0  0  0  0  0  0  0  0  0
  -39.0076  151.6777    4.9546 H   0  0  0  0  0  0  0  0  0  0  0  0
  -39.3389  151.0887    3.2411 H   0  0  0  0  0  0  0  0  0  0  0  0
  -42.0283  148.9887    3.9720 H   0  0  0  0  0  0  0  0  0  0  0  0
  -41.6917  150.4471    2.9787 H   0  0  0  0  0  0  0  0  0  0  0  0
  -40.5340  149.0736    2.9787 H   0  0  0  0  0  0  0  0  0  0  0  0
  -41.1720  149.4612    6.5505 H   0  0  0  0  0  0  0  0  0  0  0  0
  -40.4183  148.2824    5.3646 H   0  0  0  0  0  0  0  0  0  0  0  0
  -38.8923  150.3765    6.9777 H   0  0  0  0  0  0  0  0  0  0  0  0
  -39.0005  148.6176    7.3631 H   0  0  0  0  0  0  0  0  0  0  0  0
  -34.2259  146.0543    3.5106 H   0  0  0  0  0  0  0  0  0  0  0  0
  -34.9657  145.0479    1.3656 H   0  0  0  0  0  0  0  0  0  0  0  0
  -36.0036  145.4637   -2.3868 H   0  0  0  0  0  0  0  0  0  0  0  0
  -34.7104  147.4849   -3.0652 H   0  0  0  0  0  0  0  0  0  0  0  0
  -35.1402  149.6743   -1.9524 H   0  0  0  0  0  0  0  0  0  0  0  0
  -36.8530  149.8450   -0.1484 H   0  0  0  0  0  0  0  0  0  0  0  0
  -38.1472  147.8276    0.5400 H   0  0  0  0  0  0  0  0  0  0  0  0
  1  2  1  0
  2  3  1  0
  3  4  2  0
  3  5  1  0
  5  6  1  0
  6  7  2  0
  7  8  1  0
  8  9  2  0
  9 10  1  0
  9 11  1  0
 11 12  1  0
 12 13  2  0
 12 14  1  0
 14 15  2  0
 15 16  1  0
 16 17  1  0
 17 18  1  0
 18 19  2  0
 19 20  1  0
 20 21  1  0
 21 22  1  0
 21 23  1  0
 23 24  2  0
 23 25  1  0
 25 26  1  0
 26 27  1  0
 27 28  1  0
 28 29  1  0
 29 30  1  0
 29 31  1  0
 31 32  1  0
 20 33  2  0
 33 34  1  0
 15 35  1  0
 35 36  2  0
 36 37  1  0
 37 38  2  0
 38 39  1  0
 39 40  2  0
 10  5  2  0
 34 17  2  0
 40 35  1  0
 14  8  1  0
 32 26  1  0
  1 41  1  0
  1 42  1  0
  1 43  1  0
  6 44  1  0
  7 45  1  0
 10 46  1  0
 11 47  1  0
 16 48  1  0
 18 49  1  0
 19 50  1  0
 22 51  1  0
 22 52  1  0
 22 53  1  0
 25 54  1  0
 25 55  1  0
 27 56  1  0
 27 57  1  0
 28 58  1  0
 28 59  1  0
 30 60  1  0
 30 61  1  0
 30 62  1  0
 31 63  1  0
 31 64  1  0
 32 65  1  0
 32 66  1  0
 33 67  1  0
 34 68  1  0
 36 69  1  0
 37 70  1  0
 38 71  1  0
 39 72  1  0
 40 73  1  0
M  END
>  <meeko>  (9) 
{"is_sidechain": false}

>  <vina_affinity_kcal_mol>  (9) 
-7.775

>  <pose_rank>  (9) 
9

$$$$

     RDKit          3D

 73 77  0  0  0  0  0  0  0  0999 V2000
  -41.2120  144.6070   -3.6640 C   0  0  0  0  0  0  0  0  0  0  0  0
  -41.4550  145.9680   -3.3030 O   0  0  0  0  0  0  0  0  0  0  0  0
  -40.3600  146.7630   -3.3870 C   0  0  0  0  0  0  0  0  0  0  0  0
  -39.9770  147.3530   -4.3850 O   0  0  0  0  0  0  0  0  0  0  0  0
  -39.6570  146.8340   -2.0770 C   0  0  0  0  0  0  0  0  0  0  0  0
  -38.2520  146.7460   -1.9680 C   0  0  0  0  0  0  0  0  0  0  0  0
  -37.6160  146.8170   -0.7190 C   0  0  0  0  0  0  0  0  0  0  0  0
  -38.3900  146.9740    0.4170 C   0  0  0  0  0  0  0  0  0  0  0  0
  -39.7830  147.0590    0.2900 C   0  0  0  0  0  0  0  0  0  0  0  0
  -40.4380  146.9940   -0.9260 C   0  0  0  0  0  0  0  0  0  0  0  0
  -40.3850  147.2140    1.5320 N   0  0  0  0  0  0  0  0  0  0  0  0
  -39.4460  147.2330    2.5450 C   0  0  0  0  0  0  0  0  0  0  0  0
  -39.6570  147.3290    3.7410 O   0  0  0  0  0  0  0  0  0  0  0  0
  -38.1060  147.0890    1.8610 C   0  0  0  0  0  0  0  0  0  0  0  0
  -36.9640  147.0750    2.5880 C   0  0  0  0  0  0  0  0  0  0  0  0
  -36.9250  147.2430    3.9800 N   0  0  0  0  0  0  0  0  0  0  0  0
  -36.5090  148.4150    4.6510 C   0  0  0  0  0  0  0  0  0  0  0  0
  -37.2290  149.6050    4.5840 C   0  0  0  0  0  0  0  0  0  0  0  0
  -36.7640  150.7660    5.2200 C   0  0  0  0  0  0  0  0  0  0  0  0
  -35.5610  150.7770    5.9460 C   0  0  0  0  0  0  0  0  0  0  0  0
  -35.0920  151.9890    6.5800 N   0  0  0  0  0  0  0  0  0  0  0  0
  -35.3920  152.1470    8.0060 C   0  0  0  0  0  0  0  0  0  0  0  0
  -34.2910  152.9320    5.8890 C   0  0  0  0  0  0  0  0  0  0  0  0
  -33.8020  152.7330    4.7740 O   0  0  0  0  0  0  0  0  0  0  0  0
  -34.0350  154.2680    6.6320 C   0  0  0  0  0  0  0  0  0  0  0  0
  -34.7560  155.4460    6.1140 N   0  0  0  0  0  0  0  0  0  0  0  0
  -36.1910  155.2190    5.8660 C   0  0  0  0  0  0  0  0  0  0  0  0
  -36.6850  155.6290    4.4550 C   0  0  0  0  0  0  0  0  0  0  0  0
  -36.2660  156.9690    4.0030 N   0  0  0  0  0  0  0  0  0  0  0  0
  -37.2270  157.9970    4.3900 C   0  0  0  0  0  0  0  0  0  0  0  0
  -34.9110  157.3080    4.4860 C   0  0  0  0  0  0  0  0  0  0  0  0
  -34.0870  156.0960    4.9800 C   0  0  0  0  0  0  0  0  0  0  0  0
  -34.8430  149.5770    5.9980 C   0  0  0  0  0  0  0  0  0  0  0  0
  -35.3070  148.4160    5.3610 C   0  0  0  0  0  0  0  0  0  0  0  0
  -35.6730  146.9170    1.8850 C   0  0  0  0  0  0  0  0  0  0  0  0
  -34.9700  148.0400    1.4250 C   0  0  0  0  0  0  0  0  0  0  0  0
  -33.7480  147.8840    0.7690 C   0  0  0  0  0  0  0  0  0  0  0  0
  -33.2210  146.6090    0.5700 C   0  0  0  0  0  0  0  0  0  0  0  0
  -33.9150  145.4860    1.0190 C   0  0  0  0  0  0  0  0  0  0  0  0
  -35.1380  145.6380    1.6740 C   0  0  0  0  0  0  0  0  0  0  0  0
  -41.1036  143.9998   -2.7532 H   0  0  0  0  0  0  0  0  0  0  0  0
  -42.0568  144.2289   -4.2584 H   0  0  0  0  0  0  0  0  0  0  0  0
  -40.2885  144.5446   -4.2584 H   0  0  0  0  0  0  0  0  0  0  0  0
  -37.6458  146.6197   -2.8772 H   0  0  0  0  0  0  0  0  0  0  0  0
  -36.5206  146.7490   -0.6445 H   0  0  0  0  0  0  0  0  0  0  0  0
  -41.5340  147.0655   -0.9869 H   0  0  0  0  0  0  0  0  0  0  0  0
  -41.3760  147.2890    1.7060 H   0  0  0  0  0  0  0  0  0  0  0  0
  -36.5340  146.4110    4.4380 H   0  0  0  0  0  0  0  0  0  0  0  0
  -38.1756  149.6353    4.0246 H   0  0  0  0  0  0  0  0  0  0  0  0
  -37.3558  151.6905    5.1485 H   0  0  0  0  0  0  0  0  0  0  0  0
  -34.5743  151.7164    8.6026 H   0  0  0  0  0  0  0  0  0  0  0  0
  -35.4949  153.2163    8.2428 H   0  0  0  0  0  0  0  0  0  0  0  0
  -36.3319  151.6270    8.2428 H   0  0  0  0  0  0  0  0  0  0  0  0
  -34.3282  154.1297    7.6832 H   0  0  0  0  0  0  0  0  0  0  0  0
  -32.9669  154.4874    6.4869 H   0  0  0  0  0  0  0  0  0  0  0  0
  -36.3951  154.1465    6.0007 H   0  0  0  0  0  0  0  0  0  0  0  0
  -36.7312  155.8593    6.5789 H   0  0  0  0  0  0  0  0  0  0  0  0
  -36.3016  154.8922    3.7338 H   0  0  0  0  0  0  0  0  0  0  0  0
  -37.7830  155.6587    4.5149 H   0  0  0  0  0  0  0  0  0  0  0  0
  -37.2806  158.0544    5.4872 H   0  0  0  0  0  0  0  0  0  0  0  0
  -36.9062  158.9691    3.9872 H   0  0  0  0  0  0  0  0  0  0  0  0
  -38.2184  157.7424    3.9872 H   0  0  0  0  0  0  0  0  0  0  0  0
  -34.3610  157.7847    3.6612 H   0  0  0  0  0  0  0  0  0  0  0  0
  -35.0437  157.9717    5.3531 H   0  0  0  0  0  0  0  0  0  0  0  0
  -33.9810  155.3717    4.1589 H   0  0  0  0  0  0  0  0  0  0  0  0
  -33.0972  156.4483    5.3057 H   0  0  0  0  0  0  0  0  0  0  0  0
  -33.8928  149.5431    6.5511 H   0  0  0  0  0  0  0  0  0  0  0  0
  -34.7139  147.4916    5.4221 H   0  0  0  0  0  0  0  0  0  0  0  0
  -35.3832  149.0473    1.5818 H   0  0  0  0  0  0  0  0  0  0  0  0
  -33.2006  148.7675    0.4089 H   0  0  0  0  0  0  0  0  0  0  0  0
  -32.2552  146.4884    0.0575 H   0  0  0  0  0  0  0  0  0  0  0  0
  -33.4987  144.4808    0.8570 H   0  0  0  0  0  0  0  0  0  0  0  0
  -35.6846  144.7508    2.0262 H   0  0  0  0  0  0  0  0  0  0  0  0
  1  2  1  0
  2  3  1  0
  3  4  2  0
  3  5  1  0
  5  6  1  0
  6  7  2  0
  7  8  1  0
  8  9  2  0
  9 10  1  0
  9 11  1  0
 11 12  1  0
 12 13  2  0
 12 14  1  0
 14 15  2  0
 15 16  1  0
 16 17  1  0
 17 18  1  0
 18 19  2  0
 19 20  1  0
 20 21  1  0
 21 22  1  0
 21 23  1  0
 23 24  2  0
 23 25  1  0
 25 26  1  0
 26 27  1  0
 27 28  1  0
 28 29  1  0
 29 30  1  0
 29 31  1  0
 31 32  1  0
 20 33  2  0
 33 34  1  0
 15 35  1  0
 35 36  2  0
 36 37  1  0
 37 38  2  0
 38 39  1  0
 39 40  2  0
 10  5  2  0
 34 17  2  0
 40 35  1  0
 14  8  1  0
 32 26  1  0
  1 41  1  0
  1 42  1  0
  1 43  1  0
  6 44  1  0
  7 45  1  0
 10 46  1  0
 11 47  1  0
 16 48  1  0
 18 49  1  0
 19 50  1  0
 22 51  1  0
 22 52  1  0
 22 53  1  0
 25 54  1  0
 25 55  1  0
 27 56  1  0
 27 57  1  0
 28 58  1  0
 28 59  1  0
 30 60  1  0
 30 61  1  0
 30 62  1  0
 31 63  1  0
 31 64  1  0
 32 65  1  0
 32 66  1  0
 33 67  1  0
 34 68  1  0
 36 69  1  0
 37 70  1  0
 38 71  1  0
 39 72  1  0
 40 73  1  0
M  END
>  <meeko>  (10) 
{"is_sidechain": false}

>  <vina_affinity_kcal_mol>  (10) 
-7.661

>  <pose_rank>  (10) 
10

$$$$
