
     RDKit          3D

 55 59  0  0  0  0  0  0  0  0999 V2000
   -4.4657    2.0851   -1.5401 C   0  0  0  0  0  0  0  0  0  0  0  0
   -5.0110    1.2286   -0.3808 C   0  0  0  0  0  0  0  0  0  0  0  0
   -3.5322    0.8894   -0.0109 C   0  0  0  0  0  0  0  0  0  0  0  0
   -3.1848    1.2306   -1.4913 C   0  0  0  0  0  0  0  0  0  0  0  0
   -2.9546    1.7805    1.0959 C   0  0  0  0  0  0  0  0  0  0  0  0
   -1.5308    1.8159    1.0517 O   0  0  0  0  0  0  0  0  0  0  0  0
   -3.4302   -0.5275    0.2766 N   0  0  0  0  0  0  0  0  0  0  0  0
   -2.2403   -1.2881    0.2345 C   0  0  0  0  0  0  0  0  0  0  0  0
   -1.0752   -0.6780   -0.0636 N   0  0  0  0  0  0  0  0  0  0  0  0
    0.0613   -1.4087   -0.1319 C   0  0  0  0  0  0  0  0  0  0  0  0
    0.0863   -2.7345    0.0947 N   0  0  0  0  0  0  0  0  0  0  0  0
   -1.0871   -3.3181    0.3746 C   0  0  0  0  0  0  0  0  0  0  0  0
   -2.2783   -2.6420    0.4428 C   0  0  0  0  0  0  0  0  0  0  0  0
   -3.6795   -3.6817    0.7658 S   0  0  0  0  0  4  0  0  0  0  0  0
   -3.8951   -3.5710    2.2467 O   0  0  0  0  0  0  0  0  0  0  0  0
   -2.6384   -5.1669    0.4597 C   0  0  0  0  0  0  0  0  0  0  0  0
   -1.1877   -4.7748    0.7270 C   0  0  0  0  0  0  0  0  0  0  0  0
    1.2383   -0.7714   -0.4517 N   0  0  0  0  0  0  0  0  0  0  0  0
    2.4996   -1.4806   -0.2920 C   0  0  0  0  0  0  0  0  0  0  0  0
    3.6186   -0.5055    0.0592 C   0  0  0  0  0  0  0  0  0  0  0  0
    3.7646    0.6001   -0.9961 C   0  0  0  0  0  0  0  0  0  0  0  0
    2.4262    0.9869   -1.6456 C   0  0  0  0  0  0  0  0  0  0  0  0
    1.2373    0.6560   -0.7460 C   0  0  0  0  0  0  0  0  0  0  0  0
    4.4622    1.7957   -0.3859 C   0  0  0  0  0  0  0  0  0  0  0  0
    3.7505    2.6060    0.4244 N   0  0  0  0  0  0  0  0  0  0  0  0
    4.4120    3.6506    0.9713 C   0  0  0  0  0  0  0  0  0  0  0  0
    5.7425    3.9097    0.7447 C   0  0  0  0  0  0  0  0  0  0  0  0
    6.3809    3.0233   -0.0903 C   0  0  0  0  0  0  0  0  0  0  0  0
    5.7712    1.9613   -0.6649 N   0  0  0  0  0  0  0  0  0  0  0  0
    6.5485    5.2401    1.4525 Cl  0  0  0  0  0  0  0  0  0  0  0  0
   -5.0329    2.0363   -2.4731 H   0  0  0  0  0  0  0  0  0  0  0  0
   -4.3060    3.1369   -1.2773 H   0  0  0  0  0  0  0  0  0  0  0  0
   -5.5885    1.7750    0.3707 H   0  0  0  0  0  0  0  0  0  0  0  0
   -5.6113    0.3762   -0.7239 H   0  0  0  0  0  0  0  0  0  0  0  0
   -2.2552    1.7821   -1.6576 H   0  0  0  0  0  0  0  0  0  0  0  0
   -3.2111    0.3789   -2.1824 H   0  0  0  0  0  0  0  0  0  0  0  0
   -3.2617    1.4285    2.0867 H   0  0  0  0  0  0  0  0  0  0  0  0
   -3.2993    2.8148    0.9952 H   0  0  0  0  0  0  0  0  0  0  0  0
   -1.2354    0.9288    0.7555 H   0  0  0  0  0  0  0  0  0  0  0  0
   -3.9557   -0.7871    1.1131 H   0  0  0  0  0  0  0  0  0  0  0  0
   -2.7816   -5.4349   -0.5929 H   0  0  0  0  0  0  0  0  0  0  0  0
   -2.9740   -5.9969    1.0869 H   0  0  0  0  0  0  0  0  0  0  0  0
   -0.4967   -5.3848    0.1376 H   0  0  0  0  0  0  0  0  0  0  0  0
   -0.9456   -4.8970    1.7890 H   0  0  0  0  0  0  0  0  0  0  0  0
    2.7395   -2.0112   -1.2213 H   0  0  0  0  0  0  0  0  0  0  0  0
    2.4527   -2.2264    0.5111 H   0  0  0  0  0  0  0  0  0  0  0  0
    4.5679   -1.0455    0.1642 H   0  0  0  0  0  0  0  0  0  0  0  0
    3.4048   -0.0739    1.0469 H   0  0  0  0  0  0  0  0  0  0  0  0
    4.4108    0.2234   -1.8012 H   0  0  0  0  0  0  0  0  0  0  0  0
    2.4023    2.0446   -1.9343 H   0  0  0  0  0  0  0  0  0  0  0  0
    2.3173    0.4141   -2.5772 H   0  0  0  0  0  0  0  0  0  0  0  0
    0.3291    0.9536   -1.2840 H   0  0  0  0  0  0  0  0  0  0  0  0
    1.2765    1.2328    0.1851 H   0  0  0  0  0  0  0  0  0  0  0  0
    3.8120    4.2857    1.6163 H   0  0  0  0  0  0  0  0  0  0  0  0
    7.4331    3.1349   -0.3346 H   0  0  0  0  0  0  0  0  0  0  0  0
  1  2  1  0
  2  3  1  0
  3  4  1  0
  3  5  1  0
  5  6  1  0
  3  7  1  0
  7  8  1  0
  8  9  1  0
  9 10  2  0
 10 11  1  0
 11 12  2  0
 12 13  1  0
 13 14  1  0
 14 15  2  0
 14 16  1  1
 16 17  1  0
 10 18  1  0
 18 19  1  0
 19 20  1  0
 20 21  1  0
 21 22  1  0
 22 23  1  0
 21 24  1  0
 24 25  2  0
 25 26  1  0
 26 27  2  0
 27 28  1  0
 28 29  2  0
 27 30  1  0
  4  1  1  0
 13  8  2  0
 17 12  1  0
 23 18  1  0
 29 24  1  0
  1 31  1  0
  1 32  1  0
  2 33  1  0
  2 34  1  0
  4 35  1  0
  4 36  1  0
  5 37  1  0
  5 38  1  0
  6 39  1  0
  7 40  1  0
 16 41  1  0
 16 42  1  0
 17 43  1  0
 17 44  1  0
 19 45  1  0
 19 46  1  0
 20 47  1  0
 20 48  1  0
 21 49  1  0
 22 50  1  0
 22 51  1  0
 23 52  1  0
 23 53  1  0
 26 54  1  0
 28 55  1  0
M  END
$$$$
