
     RDKit          3D

 55 59  0  0  0  0  0  0  0  0999 V2000
  -10.7120    4.9700  -18.2340 O   0  0  0  0  0  0  0  0  0  0  0  0
   -9.7990    5.2940  -17.0880 S   0  0  0  0  0  4  0  0  0  0  0  0
   -8.2760    6.0570  -17.7830 C   0  0  0  0  0  0  0  0  0  0  0  0
   -7.3830    4.9280  -18.2870 C   0  0  0  0  0  0  0  0  0  0  0  0
   -7.6680    3.7530  -17.3950 C   0  0  0  0  0  0  0  0  0  0  0  0
   -6.8080    2.7340  -17.2670 N   0  0  0  0  0  0  0  0  0  0  0  0
   -7.2050    1.7030  -16.4990 C   0  0  0  0  0  0  0  0  0  0  0  0
   -6.3440    0.6460  -16.3140 N   0  0  0  0  0  0  0  0  0  0  0  0
   -5.4220    0.2820  -17.3830 C   0  0  0  0  0  0  0  0  0  0  0  0
   -5.1470   -1.2180  -17.3610 C   0  0  0  0  0  0  0  0  0  0  0  0
   -4.5920   -1.6780  -16.0060 C   0  0  0  0  0  0  0  0  0  0  0  0
   -4.8370   -3.1610  -15.8330 C   0  0  0  0  0  0  0  0  0  0  0  0
   -6.0420   -3.5610  -15.3790 N   0  0  0  0  0  0  0  0  0  0  0  0
   -6.2350   -4.8940  -15.2600 C   0  0  0  0  0  0  0  0  0  0  0  0
   -5.2810   -5.8300  -15.5790 C   0  0  0  0  0  0  0  0  0  0  0  0
   -5.5560   -7.5090  -15.4180 Cl  0  0  0  0  0  0  0  0  0  0  0  0
   -4.0880   -5.3220  -16.0390 C   0  0  0  0  0  0  0  0  0  0  0  0
   -3.8400   -3.9990  -16.1790 N   0  0  0  0  0  0  0  0  0  0  0  0
   -5.1470   -0.8640  -14.8250 C   0  0  0  0  0  0  0  0  0  0  0  0
   -6.4940   -0.2240  -15.1550 C   0  0  0  0  0  0  0  0  0  0  0  0
   -8.4160    1.6660  -15.8950 N   0  0  0  0  0  0  0  0  0  0  0  0
   -9.2680    2.6990  -16.0540 C   0  0  0  0  0  0  0  0  0  0  0  0
  -10.5200    2.6700  -15.3990 N   0  0  0  0  0  0  0  0  0  0  0  0
  -10.7180    2.6850  -13.9640 C   0  0  0  0  0  0  0  0  0  0  0  0
   -9.4340    2.9630  -13.1730 C   0  0  0  0  0  0  0  0  0  0  0  0
   -8.7470    1.7570  -12.8480 O   0  0  0  0  0  0  0  0  0  0  0  0
  -11.4450    1.3700  -13.5360 C   0  0  0  0  0  0  0  0  0  0  0  0
  -12.3480    2.2300  -12.6310 C   0  0  0  0  0  0  0  0  0  0  0  0
  -12.0210    3.4280  -13.5420 C   0  0  0  0  0  0  0  0  0  0  0  0
   -8.9020    3.7890  -16.7980 C   0  0  0  0  0  0  0  0  0  0  0  0
   -8.5384    6.7274  -18.6147 H   0  0  0  0  0  0  0  0  0  0  0  0
   -7.7552    6.6479  -17.0152 H   0  0  0  0  0  0  0  0  0  0  0  0
   -7.6264    4.6841  -19.3316 H   0  0  0  0  0  0  0  0  0  0  0  0
   -6.3199    5.2091  -18.2598 H   0  0  0  0  0  0  0  0  0  0  0  0
   -5.8650    0.5550  -18.3521 H   0  0  0  0  0  0  0  0  0  0  0  0
   -4.4743    0.8204  -17.2352 H   0  0  0  0  0  0  0  0  0  0  0  0
   -6.0860   -1.7547  -17.5615 H   0  0  0  0  0  0  0  0  0  0  0  0
   -4.3927   -1.4377  -18.1309 H   0  0  0  0  0  0  0  0  0  0  0  0
   -3.5077   -1.4927  -16.0052 H   0  0  0  0  0  0  0  0  0  0  0  0
   -7.2077   -5.2480  -14.8879 H   0  0  0  0  0  0  0  0  0  0  0  0
   -3.2911   -6.0309  -16.3081 H   0  0  0  0  0  0  0  0  0  0  0  0
   -5.2736   -1.5328  -13.9609 H   0  0  0  0  0  0  0  0  0  0  0  0
   -4.4328   -0.0576  -14.6023 H   0  0  0  0  0  0  0  0  0  0  0  0
   -7.2293   -1.0108  -15.3791 H   0  0  0  0  0  0  0  0  0  0  0  0
   -6.8417    0.3663  -14.2943 H   0  0  0  0  0  0  0  0  0  0  0  0
  -11.1160    1.9820  -15.8610 H   0  0  0  0  0  0  0  0  0  0  0  0
   -8.7719    3.5989  -13.7790 H   0  0  0  0  0  0  0  0  0  0  0  0
   -9.7099    3.4657  -12.2343 H   0  0  0  0  0  0  0  0  0  0  0  0
   -7.8350    2.0100  -12.5930 H   0  0  0  0  0  0  0  0  0  0  0  0
  -11.9735    0.8538  -14.3510 H   0  0  0  0  0  0  0  0  0  0  0  0
  -10.8881    0.5080  -13.1400 H   0  0  0  0  0  0  0  0  0  0  0  0
  -13.4073    1.9337  -12.6275 H   0  0  0  0  0  0  0  0  0  0  0  0
  -12.1956    2.2760  -11.5426 H   0  0  0  0  0  0  0  0  0  0  0  0
  -12.7394    3.5895  -14.3592 H   0  0  0  0  0  0  0  0  0  0  0  0
  -11.9939    4.4556  -13.1504 H   0  0  0  0  0  0  0  0  0  0  0  0
  1  2  2  0
  2  3  1  6
  3  4  1  0
  4  5  1  0
  5  6  2  0
  6  7  1  0
  7  8  1  0
  8  9  1  0
  9 10  1  0
 10 11  1  0
 11 12  1  0
 12 13  2  0
 13 14  1  0
 14 15  2  0
 15 16  1  0
 15 17  1  0
 17 18  2  0
 11 19  1  0
 19 20  1  0
  7 21  2  0
 21 22  1  0
 22 23  1  0
 23 24  1  0
 24 25  1  0
 25 26  1  0
 24 27  1  0
 27 28  1  0
 28 29  1  0
 22 30  2  0
 30  2  1  0
 30  5  1  0
 20  8  1  0
 29 24  1  0
 18 12  1  0
  3 31  1  0
  3 32  1  0
  4 33  1  0
  4 34  1  0
  9 35  1  0
  9 36  1  0
 10 37  1  0
 10 38  1  0
 11 39  1  0
 14 40  1  0
 17 41  1  0
 19 42  1  0
 19 43  1  0
 20 44  1  0
 20 45  1  0
 23 46  1  0
 25 47  1  0
 25 48  1  0
 26 49  1  0
 27 50  1  0
 27 51  1  0
 28 52  1  0
 28 53  1  0
 29 54  1  0
 29 55  1  0
M  END
>  <meeko>  (1) 
{"is_sidechain": false}

>  <vina_affinity_kcal_mol>  (1) 
-7.786

>  <pose_rank>  (1) 
1

$$$$

     RDKit          3D

 55 59  0  0  0  0  0  0  0  0999 V2000
   -7.5240    3.1570  -16.2500 O   0  0  0  0  0  0  0  0  0  0  0  0
   -8.8770    2.6030  -16.5890 S   0  0  0  0  0  4  0  0  0  0  0  0
  -10.1330    3.8630  -16.1230 C   0  0  0  0  0  0  0  0  0  0  0  0
  -10.3670    3.7460  -14.6200 C   0  0  0  0  0  0  0  0  0  0  0  0
  -10.1410    2.3000  -14.2820 C   0  0  0  0  0  0  0  0  0  0  0  0
  -10.6370    1.7440  -13.1690 N   0  0  0  0  0  0  0  0  0  0  0  0
  -10.3060    0.4610  -12.9360 C   0  0  0  0  0  0  0  0  0  0  0  0
  -10.8150   -0.1610  -11.8190 N   0  0  0  0  0  0  0  0  0  0  0  0
  -10.7280   -1.6110  -11.7080 C   0  0  0  0  0  0  0  0  0  0  0  0
  -11.9130   -2.1560  -10.9170 C   0  0  0  0  0  0  0  0  0  0  0  0
  -12.0080   -1.5250   -9.5210 C   0  0  0  0  0  0  0  0  0  0  0  0
  -13.4210   -1.6580   -8.9980 C   0  0  0  0  0  0  0  0  0  0  0  0
  -14.2510   -2.5240   -9.6130 N   0  0  0  0  0  0  0  0  0  0  0  0
  -15.4990   -2.6360   -9.1030 C   0  0  0  0  0  0  0  0  0  0  0  0
  -15.9390   -1.9260   -8.0130 C   0  0  0  0  0  0  0  0  0  0  0  0
  -17.5230   -2.0910   -7.3920 Cl  0  0  0  0  0  0  0  0  0  0  0  0
  -15.0160   -1.0750   -7.4520 C   0  0  0  0  0  0  0  0  0  0  0  0
  -13.7550   -0.9220   -7.9190 N   0  0  0  0  0  0  0  0  0  0  0  0
  -11.5200   -0.0670   -9.4900 C   0  0  0  0  0  0  0  0  0  0  0  0
  -11.6130    0.5960  -10.8630 C   0  0  0  0  0  0  0  0  0  0  0  0
   -9.4950   -0.2440  -13.7580 N   0  0  0  0  0  0  0  0  0  0  0  0
   -8.9970    0.3450  -14.8640 C   0  0  0  0  0  0  0  0  0  0  0  0
   -8.1740   -0.4030  -15.7360 N   0  0  0  0  0  0  0  0  0  0  0  0
   -6.7310   -0.4930  -15.6590 C   0  0  0  0  0  0  0  0  0  0  0  0
   -6.1360    0.2530  -14.4580 C   0  0  0  0  0  0  0  0  0  0  0  0
   -5.6070    1.5210  -14.8370 O   0  0  0  0  0  0  0  0  0  0  0  0
   -6.1190   -0.0610  -17.0290 C   0  0  0  0  0  0  0  0  0  0  0  0
   -5.1670   -1.2670  -16.9220 C   0  0  0  0  0  0  0  0  0  0  0  0
   -6.1960   -1.9210  -15.9800 C   0  0  0  0  0  0  0  0  0  0  0  0
   -9.3290    1.6390  -15.1680 C   0  0  0  0  0  0  0  0  0  0  0  0
   -9.7634    4.8697  -16.3680 H   0  0  0  0  0  0  0  0  0  0  0  0
  -11.0703    3.6969  -16.6743 H   0  0  0  0  0  0  0  0  0  0  0  0
   -9.6578    4.3830  -14.0712 H   0  0  0  0  0  0  0  0  0  0  0  0
  -11.3794    4.0735  -14.3412 H   0  0  0  0  0  0  0  0  0  0  0  0
  -10.7310   -2.0524  -12.7155 H   0  0  0  0  0  0  0  0  0  0  0  0
   -9.7977   -1.8734  -11.1830 H   0  0  0  0  0  0  0  0  0  0  0  0
  -12.8393   -1.9389  -11.4692 H   0  0  0  0  0  0  0  0  0  0  0  0
  -11.7704   -3.2396  -10.7924 H   0  0  0  0  0  0  0  0  0  0  0  0
  -11.3277   -2.0755   -8.8546 H   0  0  0  0  0  0  0  0  0  0  0  0
  -16.1987   -3.3330   -9.5873 H   0  0  0  0  0  0  0  0  0  0  0  0
  -15.3196   -0.4855   -6.5743 H   0  0  0  0  0  0  0  0  0  0  0  0
  -12.1391    0.4998   -8.7791 H   0  0  0  0  0  0  0  0  0  0  0  0
  -10.4635   -0.0684   -9.1838 H   0  0  0  0  0  0  0  0  0  0  0  0
  -12.6624    0.6130  -11.1924 H   0  0  0  0  0  0  0  0  0  0  0  0
  -11.2334    1.6266  -10.8008 H   0  0  0  0  0  0  0  0  0  0  0  0
   -8.4990   -0.2620  -16.6950 H   0  0  0  0  0  0  0  0  0  0  0  0
   -6.9245    0.4055  -13.7063 H   0  0  0  0  0  0  0  0  0  0  0  0
   -5.3148   -0.3538  -14.0488 H   0  0  0  0  0  0  0  0  0  0  0  0
   -6.3210    1.9940  -15.3160 H   0  0  0  0  0  0  0  0  0  0  0  0
   -6.8190   -0.1052  -17.8764 H   0  0  0  0  0  0  0  0  0  0  0  0
   -5.7389    0.9582  -17.1926 H   0  0  0  0  0  0  0  0  0  0  0  0
   -5.0039   -1.8064  -17.8667 H   0  0  0  0  0  0  0  0  0  0  0  0
   -4.1139   -1.1450  -16.6287 H   0  0  0  0  0  0  0  0  0  0  0  0
   -6.9214   -2.5782  -16.4819 H   0  0  0  0  0  0  0  0  0  0  0  0
   -5.8854   -2.6103  -15.1810 H   0  0  0  0  0  0  0  0  0  0  0  0
  1  2  2  0
  2  3  1  1
  3  4  1  0
  4  5  1  0
  5  6  2  0
  6  7  1  0
  7  8  1  0
  8  9  1  0
  9 10  1  0
 10 11  1  0
 11 12  1  0
 12 13  2  0
 13 14  1  0
 14 15  2  0
 15 16  1  0
 15 17  1  0
 17 18  2  0
 11 19  1  0
 19 20  1  0
  7 21  2  0
 21 22  1  0
 22 23  1  0
 23 24  1  0
 24 25  1  0
 25 26  1  0
 24 27  1  0
 27 28  1  0
 28 29  1  0
 22 30  2  0
 30  2  1  0
 30  5  1  0
 20  8  1  0
 29 24  1  0
 18 12  1  0
  3 31  1  0
  3 32  1  0
  4 33  1  0
  4 34  1  0
  9 35  1  0
  9 36  1  0
 10 37  1  0
 10 38  1  0
 11 39  1  0
 14 40  1  0
 17 41  1  0
 19 42  1  0
 19 43  1  0
 20 44  1  0
 20 45  1  0
 23 46  1  0
 25 47  1  0
 25 48  1  0
 26 49  1  0
 27 50  1  0
 27 51  1  0
 28 52  1  0
 28 53  1  0
 29 54  1  0
 29 55  1  0
M  END
>  <meeko>  (2) 
{"is_sidechain": false}

>  <vina_affinity_kcal_mol>  (2) 
-7.632

>  <pose_rank>  (2) 
2

$$$$

     RDKit          3D

 55 59  0  0  0  0  0  0  0  0999 V2000
  -11.7930    4.4050  -13.2590 O   0  0  0  0  0  0  0  0  0  0  0  0
  -12.0110    3.5740  -14.4900 S   0  0  0  0  0  4  0  0  0  0  0  0
  -12.3790    1.8550  -13.9490 C   0  0  0  0  0  0  0  0  0  0  0  0
  -11.0490    1.1800  -13.6260 C   0  0  0  0  0  0  0  0  0  0  0  0
  -10.0380    1.8100  -14.5410 C   0  0  0  0  0  0  0  0  0  0  0  0
   -8.8760    1.2120  -14.8340 N   0  0  0  0  0  0  0  0  0  0  0  0
   -8.0180    1.9070  -15.6040 C   0  0  0  0  0  0  0  0  0  0  0  0
   -6.8230    1.3210  -15.9550 N   0  0  0  0  0  0  0  0  0  0  0  0
   -5.6470    1.5490  -15.1260 C   0  0  0  0  0  0  0  0  0  0  0  0
   -4.3810    1.5230  -15.9770 C   0  0  0  0  0  0  0  0  0  0  0  0
   -4.2370    0.2020  -16.7460 C   0  0  0  0  0  0  0  0  0  0  0  0
   -3.3270    0.4040  -17.9370 C   0  0  0  0  0  0  0  0  0  0  0  0
   -2.1920    1.1100  -17.7620 N   0  0  0  0  0  0  0  0  0  0  0  0
   -1.3910    1.2500  -18.8420 C   0  0  0  0  0  0  0  0  0  0  0  0
   -1.6760    0.7120  -20.0740 C   0  0  0  0  0  0  0  0  0  0  0  0
   -0.6400    0.9070  -21.4190 Cl  0  0  0  0  0  0  0  0  0  0  0  0
   -2.8530    0.0040  -20.1490 C   0  0  0  0  0  0  0  0  0  0  0  0
   -3.6930   -0.1680  -19.1020 N   0  0  0  0  0  0  0  0  0  0  0  0
   -5.5910   -0.4020  -17.1550 C   0  0  0  0  0  0  0  0  0  0  0  0
   -6.6870    0.6580  -17.2450 C   0  0  0  0  0  0  0  0  0  0  0  0
   -8.2860    3.1540  -16.0520 N   0  0  0  0  0  0  0  0  0  0  0  0
   -9.4580    3.7390  -15.7300 C   0  0  0  0  0  0  0  0  0  0  0  0
   -9.7470    5.0310  -16.2230 N   0  0  0  0  0  0  0  0  0  0  0  0
   -9.5710    5.4650  -17.5940 C   0  0  0  0  0  0  0  0  0  0  0  0
   -8.4770    4.6930  -18.3440 C   0  0  0  0  0  0  0  0  0  0  0  0
   -7.1760    5.1730  -18.0130 O   0  0  0  0  0  0  0  0  0  0  0  0
   -9.3700    7.0140  -17.6170 C   0  0  0  0  0  0  0  0  0  0  0  0
  -10.3410    7.0670  -18.8120 C   0  0  0  0  0  0  0  0  0  0  0  0
  -10.9220    5.7270  -18.3230 C   0  0  0  0  0  0  0  0  0  0  0  0
  -10.3820    3.0640  -14.9760 C   0  0  0  0  0  0  0  0  0  0  0  0
  -13.0185    1.8719  -13.0541 H   0  0  0  0  0  0  0  0  0  0  0  0
  -12.9097    1.3055  -14.7404 H   0  0  0  0  0  0  0  0  0  0  0  0
  -10.7759    1.3549  -12.5749 H   0  0  0  0  0  0  0  0  0  0  0  0
  -11.1022    0.0907  -13.7698 H   0  0  0  0  0  0  0  0  0  0  0  0
   -5.7340    2.5301  -14.6361 H   0  0  0  0  0  0  0  0  0  0  0  0
   -5.5843    0.7523  -14.3701 H   0  0  0  0  0  0  0  0  0  0  0  0
   -4.4201    2.3524  -16.6985 H   0  0  0  0  0  0  0  0  0  0  0  0
   -3.5157    1.6232  -15.3052 H   0  0  0  0  0  0  0  0  0  0  0  0
   -3.7805   -0.5349  -16.0688 H   0  0  0  0  0  0  0  0  0  0  0  0
   -0.4606    1.8258  -18.7285 H   0  0  0  0  0  0  0  0  0  0  0  0
   -3.1267   -0.4476  -21.1140 H   0  0  0  0  0  0  0  0  0  0  0  0
   -5.4823   -0.8846  -18.1375 H   0  0  0  0  0  0  0  0  0  0  0  0
   -5.8849   -1.1298  -16.3843 H   0  0  0  0  0  0  0  0  0  0  0  0
   -6.4193    1.3991  -18.0125 H   0  0  0  0  0  0  0  0  0  0  0  0
   -7.6401    0.1803  -17.5160 H   0  0  0  0  0  0  0  0  0  0  0  0
   -9.4020    5.7220  -15.5550 H   0  0  0  0  0  0  0  0  0  0  0  0
   -8.5437    3.6282  -18.0760 H   0  0  0  0  0  0  0  0  0  0  0  0
   -8.6327    4.8365  -19.4234 H   0  0  0  0  0  0  0  0  0  0  0  0
   -7.0710    6.0380  -18.4620 H   0  0  0  0  0  0  0  0  0  0  0  0
   -9.7258    7.5344  -16.7156 H   0  0  0  0  0  0  0  0  0  0  0  0
   -8.3671    7.4625  -17.6712 H   0  0  0  0  0  0  0  0  0  0  0  0
  -11.0492    7.9084  -18.7892 H   0  0  0  0  0  0  0  0  0  0  0  0
   -9.9793    7.1961  -19.8428 H   0  0  0  0  0  0  0  0  0  0  0  0
  -11.7901    5.8230  -17.6543 H   0  0  0  0  0  0  0  0  0  0  0  0
  -11.3447    4.9949  -19.0268 H   0  0  0  0  0  0  0  0  0  0  0  0
  1  2  2  0
  2  3  1  1
  3  4  1  0
  4  5  1  0
  5  6  2  0
  6  7  1  0
  7  8  1  0
  8  9  1  0
  9 10  1  0
 10 11  1  0
 11 12  1  0
 12 13  2  0
 13 14  1  0
 14 15  2  0
 15 16  1  0
 15 17  1  0
 17 18  2  0
 11 19  1  0
 19 20  1  0
  7 21  2  0
 21 22  1  0
 22 23  1  0
 23 24  1  0
 24 25  1  0
 25 26  1  0
 24 27  1  0
 27 28  1  0
 28 29  1  0
 22 30  2  0
 30  2  1  0
 30  5  1  0
 20  8  1  0
 29 24  1  0
 18 12  1  0
  3 31  1  0
  3 32  1  0
  4 33  1  0
  4 34  1  0
  9 35  1  0
  9 36  1  0
 10 37  1  0
 10 38  1  0
 11 39  1  0
 14 40  1  0
 17 41  1  0
 19 42  1  0
 19 43  1  0
 20 44  1  0
 20 45  1  0
 23 46  1  0
 25 47  1  0
 25 48  1  0
 26 49  1  0
 27 50  1  0
 27 51  1  0
 28 52  1  0
 28 53  1  0
 29 54  1  0
 29 55  1  0
M  END
>  <meeko>  (3) 
{"is_sidechain": false}

>  <vina_affinity_kcal_mol>  (3) 
-7.621

>  <pose_rank>  (3) 
3

$$$$

     RDKit          3D

 55 59  0  0  0  0  0  0  0  0999 V2000
   -7.7750    5.5940  -17.4500 O   0  0  0  0  0  0  0  0  0  0  0  0
   -8.9140    4.7610  -17.9610 S   0  0  0  0  0  4  0  0  0  0  0  0
  -10.4750    5.6690  -17.6080 C   0  0  0  0  0  0  0  0  0  0  0  0
  -10.8350    5.4160  -16.1470 C   0  0  0  0  0  0  0  0  0  0  0  0
  -10.3100    4.0450  -15.8280 C   0  0  0  0  0  0  0  0  0  0  0  0
  -10.7770    3.3280  -14.7980 N   0  0  0  0  0  0  0  0  0  0  0  0
  -10.1780    2.1460  -14.5650 C   0  0  0  0  0  0  0  0  0  0  0  0
  -10.6430    1.3610  -13.5340 N   0  0  0  0  0  0  0  0  0  0  0  0
  -11.9210    1.6830  -12.9140 C   0  0  0  0  0  0  0  0  0  0  0  0
  -11.9140    1.2850  -11.4410 C   0  0  0  0  0  0  0  0  0  0  0  0
  -11.5960   -0.2050  -11.2540 C   0  0  0  0  0  0  0  0  0  0  0  0
  -11.0760   -0.4420   -9.8530 C   0  0  0  0  0  0  0  0  0  0  0  0
  -11.4860    0.3850   -8.8710 N   0  0  0  0  0  0  0  0  0  0  0  0
  -11.0210    0.1290   -7.6270 C   0  0  0  0  0  0  0  0  0  0  0  0
  -10.1760   -0.9130   -7.3330 C   0  0  0  0  0  0  0  0  0  0  0  0
   -9.6060   -1.2100   -5.7490 Cl  0  0  0  0  0  0  0  0  0  0  0  0
   -9.8210   -1.7040   -8.4010 C   0  0  0  0  0  0  0  0  0  0  0  0
  -10.2560   -1.4950   -9.6660 N   0  0  0  0  0  0  0  0  0  0  0  0
  -10.6340   -0.7500  -12.3230 C   0  0  0  0  0  0  0  0  0  0  0  0
   -9.7760    0.3550  -12.9360 C   0  0  0  0  0  0  0  0  0  0  0  0
   -9.1410    1.6950  -15.3070 N   0  0  0  0  0  0  0  0  0  0  0  0
   -8.6810    2.4440  -16.3290 C   0  0  0  0  0  0  0  0  0  0  0  0
   -7.6160    1.9570  -17.1210 N   0  0  0  0  0  0  0  0  0  0  0  0
   -6.2440    1.8080  -16.6820 C   0  0  0  0  0  0  0  0  0  0  0  0
   -5.6220    3.1120  -16.1650 C   0  0  0  0  0  0  0  0  0  0  0  0
   -5.3350    4.0140  -17.2300 O   0  0  0  0  0  0  0  0  0  0  0  0
   -5.4160    1.1280  -17.8190 C   0  0  0  0  0  0  0  0  0  0  0  0
   -4.7710    0.2360  -16.7410 C   0  0  0  0  0  0  0  0  0  0  0  0
   -6.0090    0.5020  -15.8640 C   0  0  0  0  0  0  0  0  0  0  0  0
   -9.2750    3.6410  -16.6320 C   0  0  0  0  0  0  0  0  0  0  0  0
  -10.3291    6.7460  -17.7774 H   0  0  0  0  0  0  0  0  0  0  0  0
  -11.2819    5.3226  -18.2705 H   0  0  0  0  0  0  0  0  0  0  0  0
  -10.3604    6.1682  -15.4997 H   0  0  0  0  0  0  0  0  0  0  0  0
  -11.9201    5.4832  -15.9798 H   0  0  0  0  0  0  0  0  0  0  0  0
  -12.1010    2.7651  -12.9960 H   0  0  0  0  0  0  0  0  0  0  0  0
  -12.7175    1.1266  -13.4297 H   0  0  0  0  0  0  0  0  0  0  0  0
  -11.1529    1.8801  -10.9151 H   0  0  0  0  0  0  0  0  0  0  0  0
  -12.9171    1.4743  -11.0312 H   0  0  0  0  0  0  0  0  0  0  0  0
  -12.5309   -0.7690  -11.3878 H   0  0  0  0  0  0  0  0  0  0  0  0
  -11.3365    0.7907   -6.8069 H   0  0  0  0  0  0  0  0  0  0  0  0
   -9.1465   -2.5532   -8.2171 H   0  0  0  0  0  0  0  0  0  0  0  0
   -9.9731   -1.4968  -11.8587 H   0  0  0  0  0  0  0  0  0  0  0  0
  -11.2369   -1.1979  -13.1267 H   0  0  0  0  0  0  0  0  0  0  0  0
   -9.1601    0.8197  -12.1520 H   0  0  0  0  0  0  0  0  0  0  0  0
   -9.1203   -0.0730  -13.7086 H   0  0  0  0  0  0  0  0  0  0  0  0
   -7.6780    2.3780  -18.0490 H   0  0  0  0  0  0  0  0  0  0  0  0
   -6.3263    3.5926  -15.4700 H   0  0  0  0  0  0  0  0  0  0  0  0
   -4.6772    2.8656  -15.6585 H   0  0  0  0  0  0  0  0  0  0  0  0
   -5.7610    3.6470  -18.0340 H   0  0  0  0  0  0  0  0  0  0  0  0
   -6.0192    0.5843  -18.5610 H   0  0  0  0  0  0  0  0  0  0  0  0
   -4.8046    1.7192  -18.5167 H   0  0  0  0  0  0  0  0  0  0  0  0
   -4.6371   -0.8150  -17.0368 H   0  0  0  0  0  0  0  0  0  0  0  0
   -3.7522    0.4246  -16.3715 H   0  0  0  0  0  0  0  0  0  0  0  0
   -6.8076   -0.2480  -15.9623 H   0  0  0  0  0  0  0  0  0  0  0  0
   -5.9412    0.5175  -14.7662 H   0  0  0  0  0  0  0  0  0  0  0  0
  1  2  2  0
  2  3  1  1
  3  4  1  0
  4  5  1  0
  5  6  2  0
  6  7  1  0
  7  8  1  0
  8  9  1  0
  9 10  1  0
 10 11  1  0
 11 12  1  0
 12 13  2  0
 13 14  1  0
 14 15  2  0
 15 16  1  0
 15 17  1  0
 17 18  2  0
 11 19  1  0
 19 20  1  0
  7 21  2  0
 21 22  1  0
 22 23  1  0
 23 24  1  0
 24 25  1  0
 25 26  1  0
 24 27  1  0
 27 28  1  0
 28 29  1  0
 22 30  2  0
 30  2  1  0
 30  5  1  0
 20  8  1  0
 29 24  1  0
 18 12  1  0
  3 31  1  0
  3 32  1  0
  4 33  1  0
  4 34  1  0
  9 35  1  0
  9 36  1  0
 10 37  1  0
 10 38  1  0
 11 39  1  0
 14 40  1  0
 17 41  1  0
 19 42  1  0
 19 43  1  0
 20 44  1  0
 20 45  1  0
 23 46  1  0
 25 47  1  0
 25 48  1  0
 26 49  1  0
 27 50  1  0
 27 51  1  0
 28 52  1  0
 28 53  1  0
 29 54  1  0
 29 55  1  0
M  END
>  <meeko>  (4) 
{"is_sidechain": false}

>  <vina_affinity_kcal_mol>  (4) 
-7.545

>  <pose_rank>  (4) 
4

$$$$

     RDKit          3D

 55 59  0  0  0  0  0  0  0  0999 V2000
  -11.6860    5.7790  -17.5760 O   0  0  0  0  0  0  0  0  0  0  0  0
  -10.6880    6.0410  -16.4860 S   0  0  0  0  0  4  0  0  0  0  0  0
   -9.4170    7.1910  -17.1540 C   0  0  0  0  0  0  0  0  0  0  0  0
   -8.4320    6.3640  -17.9740 C   0  0  0  0  0  0  0  0  0  0  0  0
   -8.4000    5.0080  -17.3280 C   0  0  0  0  0  0  0  0  0  0  0  0
   -7.3780    4.1600  -17.5070 N   0  0  0  0  0  0  0  0  0  0  0  0
   -7.4960    2.9460  -16.9390 C   0  0  0  0  0  0  0  0  0  0  0  0
   -6.4590    2.0510  -17.0720 N   0  0  0  0  0  0  0  0  0  0  0  0
   -6.6810    0.8040  -17.7930 C   0  0  0  0  0  0  0  0  0  0  0  0
   -5.8040   -0.3050  -17.2220 C   0  0  0  0  0  0  0  0  0  0  0  0
   -4.3150    0.0680  -17.2580 C   0  0  0  0  0  0  0  0  0  0  0  0
   -3.5590   -0.7580  -16.2410 C   0  0  0  0  0  0  0  0  0  0  0  0
   -2.2120   -0.7200  -16.2610 N   0  0  0  0  0  0  0  0  0  0  0  0
   -1.5690   -1.4510  -15.3220 C   0  0  0  0  0  0  0  0  0  0  0  0
   -2.2160   -2.2050  -14.3730 C   0  0  0  0  0  0  0  0  0  0  0  0
   -1.3740   -3.1180  -13.1990 Cl  0  0  0  0  0  0  0  0  0  0  0  0
   -3.5900   -2.1730  -14.4320 C   0  0  0  0  0  0  0  0  0  0  0  0
   -4.2860   -1.4610  -15.3480 N   0  0  0  0  0  0  0  0  0  0  0  0
   -4.0710    1.5750  -17.0680 C   0  0  0  0  0  0  0  0  0  0  0  0
   -5.2230    2.2510  -16.3270 C   0  0  0  0  0  0  0  0  0  0  0  0
   -8.5910    2.5710  -16.2380 N   0  0  0  0  0  0  0  0  0  0  0  0
   -9.6110    3.4390  -16.0860 C   0  0  0  0  0  0  0  0  0  0  0  0
  -10.7410    3.0550  -15.3290 N   0  0  0  0  0  0  0  0  0  0  0  0
  -10.7400    2.7600  -13.9110 C   0  0  0  0  0  0  0  0  0  0  0  0
   -9.4020    3.0630  -13.2240 C   0  0  0  0  0  0  0  0  0  0  0  0
   -8.5900    1.8970  -13.1200 O   0  0  0  0  0  0  0  0  0  0  0  0
  -11.2360    1.2940  -13.6950 C   0  0  0  0  0  0  0  0  0  0  0  0
  -12.1040    1.8170  -12.5350 C   0  0  0  0  0  0  0  0  0  0  0  0
  -12.0530    3.2060  -13.2000 C   0  0  0  0  0  0  0  0  0  0  0  0
   -9.5300    4.7010  -16.6150 C   0  0  0  0  0  0  0  0  0  0  0  0
   -9.8949    7.9477  -17.7936 H   0  0  0  0  0  0  0  0  0  0  0  0
   -8.8975    7.7103  -16.3352 H   0  0  0  0  0  0  0  0  0  0  0  0
   -8.7738    6.2838  -19.0165 H   0  0  0  0  0  0  0  0  0  0  0  0
   -7.4341    6.8263  -17.9952 H   0  0  0  0  0  0  0  0  0  0  0  0
   -7.7381    0.5145  -17.6990 H   0  0  0  0  0  0  0  0  0  0  0  0
   -6.4221    0.9536  -18.8516 H   0  0  0  0  0  0  0  0  0  0  0  0
   -6.0992   -0.4905  -16.1787 H   0  0  0  0  0  0  0  0  0  0  0  0
   -5.9456   -1.2042  -17.8395 H   0  0  0  0  0  0  0  0  0  0  0  0
   -3.9331   -0.1657  -18.2628 H   0  0  0  0  0  0  0  0  0  0  0  0
   -0.4691   -1.4413  -15.3179 H   0  0  0  0  0  0  0  0  0  0  0  0
   -4.1548   -2.7596  -13.6925 H   0  0  0  0  0  0  0  0  0  0  0  0
   -3.1457    1.7151  -16.4898 H   0  0  0  0  0  0  0  0  0  0  0  0
   -3.9906    2.0349  -18.0640 H   0  0  0  0  0  0  0  0  0  0  0  0
   -5.3233    1.8106  -15.3240 H   0  0  0  0  0  0  0  0  0  0  0  0
   -5.0194    3.3280  -16.2340 H   0  0  0  0  0  0  0  0  0  0  0  0
  -11.2760    2.3690  -15.8630 H   0  0  0  0  0  0  0  0  0  0  0  0
   -8.8634    3.8219  -13.8104 H   0  0  0  0  0  0  0  0  0  0  0  0
   -9.6119    3.4279  -12.2077 H   0  0  0  0  0  0  0  0  0  0  0  0
   -9.0750    1.2640  -12.5480 H   0  0  0  0  0  0  0  0  0  0  0  0
  -11.8045    0.8750  -14.5383 H   0  0  0  0  0  0  0  0  0  0  0  0
  -10.5291    0.4631  -13.5544 H   0  0  0  0  0  0  0  0  0  0  0  0
  -13.1089    1.3731  -12.4794 H   0  0  0  0  0  0  0  0  0  0  0  0
  -11.8106    1.6704  -11.4850 H   0  0  0  0  0  0  0  0  0  0  0  0
  -12.8912    3.4175  -13.8802 H   0  0  0  0  0  0  0  0  0  0  0  0
  -12.0970    4.1292  -12.6036 H   0  0  0  0  0  0  0  0  0  0  0  0
  1  2  2  0
  2  3  1  6
  3  4  1  0
  4  5  1  0
  5  6  2  0
  6  7  1  0
  7  8  1  0
  8  9  1  0
  9 10  1  0
 10 11  1  0
 11 12  1  0
 12 13  2  0
 13 14  1  0
 14 15  2  0
 15 16  1  0
 15 17  1  0
 17 18  2  0
 11 19  1  0
 19 20  1  0
  7 21  2  0
 21 22  1  0
 22 23  1  0
 23 24  1  0
 24 25  1  0
 25 26  1  0
 24 27  1  0
 27 28  1  0
 28 29  1  0
 22 30  2  0
 30  2  1  0
 30  5  1  0
 20  8  1  0
 29 24  1  0
 18 12  1  0
  3 31  1  0
  3 32  1  0
  4 33  1  0
  4 34  1  0
  9 35  1  0
  9 36  1  0
 10 37  1  0
 10 38  1  0
 11 39  1  0
 14 40  1  0
 17 41  1  0
 19 42  1  0
 19 43  1  0
 20 44  1  0
 20 45  1  0
 23 46  1  0
 25 47  1  0
 25 48  1  0
 26 49  1  0
 27 50  1  0
 27 51  1  0
 28 52  1  0
 28 53  1  0
 29 54  1  0
 29 55  1  0
M  END
>  <meeko>  (5) 
{"is_sidechain": false}

>  <vina_affinity_kcal_mol>  (5) 
-7.525

>  <pose_rank>  (5) 
5

$$$$

     RDKit          3D

 55 59  0  0  0  0  0  0  0  0999 V2000
   -6.5050    3.9950  -17.5510 O   0  0  0  0  0  0  0  0  0  0  0  0
   -7.8130    3.4330  -18.0250 S   0  0  0  0  0  4  0  0  0  0  0  0
   -9.1140    4.6940  -17.7040 C   0  0  0  0  0  0  0  0  0  0  0  0
   -9.5050    4.5880  -16.2330 C   0  0  0  0  0  0  0  0  0  0  0  0
   -9.3120    3.1460  -15.8610 C   0  0  0  0  0  0  0  0  0  0  0  0
   -9.9210    2.5980  -14.8010 N   0  0  0  0  0  0  0  0  0  0  0  0
   -9.6130    1.3190  -14.5230 C   0  0  0  0  0  0  0  0  0  0  0  0
  -10.2360    0.7050  -13.4600 N   0  0  0  0  0  0  0  0  0  0  0  0
  -11.5080    1.2270  -12.9810 C   0  0  0  0  0  0  0  0  0  0  0  0
  -11.6490    0.9920  -11.4800 C   0  0  0  0  0  0  0  0  0  0  0  0
  -11.5200   -0.4940  -11.1200 C   0  0  0  0  0  0  0  0  0  0  0  0
  -11.1290   -0.6330   -9.6660 C   0  0  0  0  0  0  0  0  0  0  0  0
  -10.4040   -1.7080   -9.2980 N   0  0  0  0  0  0  0  0  0  0  0  0
  -10.0520   -1.7870   -7.9940 C   0  0  0  0  0  0  0  0  0  0  0  0
  -10.3900   -0.8400   -7.0580 C   0  0  0  0  0  0  0  0  0  0  0  0
   -9.9280   -0.9690   -5.4180 Cl  0  0  0  0  0  0  0  0  0  0  0  0
  -11.1250    0.2220   -7.5330 C   0  0  0  0  0  0  0  0  0  0  0  0
  -11.5050    0.3530   -8.8250 N   0  0  0  0  0  0  0  0  0  0  0  0
  -10.5540   -1.2520  -12.0470 C   0  0  0  0  0  0  0  0  0  0  0  0
   -9.5340   -0.3190  -12.6970 C   0  0  0  0  0  0  0  0  0  0  0  0
   -8.7190    0.6090  -15.2490 N   0  0  0  0  0  0  0  0  0  0  0  0
   -8.1090    1.1890  -16.3020 C   0  0  0  0  0  0  0  0  0  0  0  0
   -7.1970    0.4370  -17.0770 N   0  0  0  0  0  0  0  0  0  0  0  0
   -5.8610    0.0570  -16.6670 C   0  0  0  0  0  0  0  0  0  0  0  0
   -5.7930   -1.3300  -16.0140 C   0  0  0  0  0  0  0  0  0  0  0  0
   -7.0230   -2.0360  -16.1530 O   0  0  0  0  0  0  0  0  0  0  0  0
   -5.2550    1.1940  -15.7840 C   0  0  0  0  0  0  0  0  0  0  0  0
   -3.9430    1.0340  -16.5750 C   0  0  0  0  0  0  0  0  0  0  0  0
   -4.7770    0.4310  -17.7220 C   0  0  0  0  0  0  0  0  0  0  0  0
   -8.4100    2.4800  -16.6510 C   0  0  0  0  0  0  0  0  0  0  0  0
   -8.7224    5.6997  -17.9167 H   0  0  0  0  0  0  0  0  0  0  0  0
   -9.9876    4.5213  -18.3497 H   0  0  0  0  0  0  0  0  0  0  0  0
   -8.8594    5.2320  -15.6177 H   0  0  0  0  0  0  0  0  0  0  0  0
  -10.5421    4.9139  -16.0654 H   0  0  0  0  0  0  0  0  0  0  0  0
  -11.5563    2.3069  -13.1847 H   0  0  0  0  0  0  0  0  0  0  0  0
  -12.3255    0.7068  -13.5016 H   0  0  0  0  0  0  0  0  0  0  0  0
  -10.8621    1.5546  -10.9563 H   0  0  0  0  0  0  0  0  0  0  0  0
  -12.6494    1.3318  -11.1738 H   0  0  0  0  0  0  0  0  0  0  0  0
  -12.5027   -0.9641  -11.2724 H   0  0  0  0  0  0  0  0  0  0  0  0
   -9.4635   -2.6564   -7.6656 H   0  0  0  0  0  0  0  0  0  0  0  0
  -11.4201    1.0083   -6.8227 H   0  0  0  0  0  0  0  0  0  0  0  0
  -10.0170   -2.0096  -11.4573 H   0  0  0  0  0  0  0  0  0  0  0  0
  -11.1470   -1.7178  -12.8479 H   0  0  0  0  0  0  0  0  0  0  0  0
   -8.9230    0.1583  -11.9167 H   0  0  0  0  0  0  0  0  0  0  0  0
   -8.8816   -0.8965  -13.3684 H   0  0  0  0  0  0  0  0  0  0  0  0
   -7.2200    0.7820  -18.0380 H   0  0  0  0  0  0  0  0  0  0  0  0
   -4.9916   -1.9113  -16.4933 H   0  0  0  0  0  0  0  0  0  0  0  0
   -5.5928   -1.1956  -14.9408 H   0  0  0  0  0  0  0  0  0  0  0  0
   -7.3830   -2.1580  -15.2480 H   0  0  0  0  0  0  0  0  0  0  0  0
   -5.7429    2.1729  -15.9013 H   0  0  0  0  0  0  0  0  0  0  0  0
   -5.2738    1.1402  -14.6855 H   0  0  0  0  0  0  0  0  0  0  0  0
   -3.4402    1.9803  -16.8234 H   0  0  0  0  0  0  0  0  0  0  0  0
   -3.0768    0.5038  -16.1524 H   0  0  0  0  0  0  0  0  0  0  0  0
   -5.1074    1.1588  -18.4778 H   0  0  0  0  0  0  0  0  0  0  0  0
   -4.3552   -0.3229  -18.4030 H   0  0  0  0  0  0  0  0  0  0  0  0
  1  2  2  0
  2  3  1  1
  3  4  1  0
  4  5  1  0
  5  6  2  0
  6  7  1  0
  7  8  1  0
  8  9  1  0
  9 10  1  0
 10 11  1  0
 11 12  1  0
 12 13  2  0
 13 14  1  0
 14 15  2  0
 15 16  1  0
 15 17  1  0
 17 18  2  0
 11 19  1  0
 19 20  1  0
  7 21  2  0
 21 22  1  0
 22 23  1  0
 23 24  1  0
 24 25  1  0
 25 26  1  0
 24 27  1  0
 27 28  1  0
 28 29  1  0
 22 30  2  0
 30  2  1  0
 30  5  1  0
 20  8  1  0
 29 24  1  0
 18 12  1  0
  3 31  1  0
  3 32  1  0
  4 33  1  0
  4 34  1  0
  9 35  1  0
  9 36  1  0
 10 37  1  0
 10 38  1  0
 11 39  1  0
 14 40  1  0
 17 41  1  0
 19 42  1  0
 19 43  1  0
 20 44  1  0
 20 45  1  0
 23 46  1  0
 25 47  1  0
 25 48  1  0
 26 49  1  0
 27 50  1  0
 27 51  1  0
 28 52  1  0
 28 53  1  0
 29 54  1  0
 29 55  1  0
M  END
>  <meeko>  (6) 
{"is_sidechain": false}

>  <vina_affinity_kcal_mol>  (6) 
-7.438

>  <pose_rank>  (6) 
6

$$$$

     RDKit          3D

 55 59  0  0  0  0  0  0  0  0999 V2000
   -2.2360   -3.4840  -17.3310 O   0  0  0  0  0  0  0  0  0  0  0  0
   -1.6950   -2.1840  -16.8100 S   0  0  0  0  0  4  0  0  0  0  0  0
   -1.7080   -2.2670  -14.9720 C   0  0  0  0  0  0  0  0  0  0  0  0
   -3.1290   -1.9600  -14.5080 C   0  0  0  0  0  0  0  0  0  0  0  0
   -3.6990   -1.0200  -15.5310 C   0  0  0  0  0  0  0  0  0  0  0  0
   -4.7460   -0.2280  -15.2620 N   0  0  0  0  0  0  0  0  0  0  0  0
   -5.2160    0.5160  -16.2790 C   0  0  0  0  0  0  0  0  0  0  0  0
   -6.2720    1.3660  -16.0430 N   0  0  0  0  0  0  0  0  0  0  0  0
   -6.0400    2.6090  -15.3190 C   0  0  0  0  0  0  0  0  0  0  0  0
   -7.2780    2.9970  -14.5160 C   0  0  0  0  0  0  0  0  0  0  0  0
   -8.5190    3.1310  -15.4090 C   0  0  0  0  0  0  0  0  0  0  0  0
   -9.7680    2.9780  -14.5690 C   0  0  0  0  0  0  0  0  0  0  0  0
  -10.8110    3.7940  -14.8210 N   0  0  0  0  0  0  0  0  0  0  0  0
  -11.9190    3.6130  -14.0680 C   0  0  0  0  0  0  0  0  0  0  0  0
  -12.0240    2.6560  -13.0880 C   0  0  0  0  0  0  0  0  0  0  0  0
  -13.4400    2.4530  -12.1540 Cl  0  0  0  0  0  0  0  0  0  0  0  0
  -10.9090    1.8700  -12.9120 C   0  0  0  0  0  0  0  0  0  0  0  0
   -9.7730    2.0050  -13.6350 N   0  0  0  0  0  0  0  0  0  0  0  0
   -8.5070    2.1580  -16.6000 C   0  0  0  0  0  0  0  0  0  0  0  0
   -7.6340    0.9330  -16.3290 C   0  0  0  0  0  0  0  0  0  0  0  0
   -4.6880    0.4670  -17.5240 N   0  0  0  0  0  0  0  0  0  0  0  0
   -3.6440   -0.3500  -17.7710 C   0  0  0  0  0  0  0  0  0  0  0  0
   -3.0770   -0.3770  -19.0650 N   0  0  0  0  0  0  0  0  0  0  0  0
   -1.8700    0.3160  -19.4670 C   0  0  0  0  0  0  0  0  0  0  0  0
   -1.3740    1.3320  -18.4310 C   0  0  0  0  0  0  0  0  0  0  0  0
   -1.7710    2.6590  -18.7660 O   0  0  0  0  0  0  0  0  0  0  0  0
   -2.0830    0.9260  -20.8890 C   0  0  0  0  0  0  0  0  0  0  0  0
   -0.6780    0.4150  -21.2590 C   0  0  0  0  0  0  0  0  0  0  0  0
   -0.8250   -0.6280  -20.1350 C   0  0  0  0  0  0  0  0  0  0  0  0
   -3.1050   -1.1060  -16.7630 C   0  0  0  0  0  0  0  0  0  0  0  0
   -1.4138   -3.2734  -14.6396 H   0  0  0  0  0  0  0  0  0  0  0  0
   -0.9972   -1.5431  -14.5469 H   0  0  0  0  0  0  0  0  0  0  0  0
   -3.7249   -2.8834  -14.4621 H   0  0  0  0  0  0  0  0  0  0  0  0
   -3.1395   -1.5174  -13.5010 H   0  0  0  0  0  0  0  0  0  0  0  0
   -5.1904    2.4756  -14.6331 H   0  0  0  0  0  0  0  0  0  0  0  0
   -5.8201    3.4074  -16.0430 H   0  0  0  0  0  0  0  0  0  0  0  0
   -7.4672    2.2230  -13.7576 H   0  0  0  0  0  0  0  0  0  0  0  0
   -7.0882    3.9735  -14.0464 H   0  0  0  0  0  0  0  0  0  0  0  0
   -8.5078    4.1372  -15.8534 H   0  0  0  0  0  0  0  0  0  0  0  0
  -12.7839    4.2679  -14.2499 H   0  0  0  0  0  0  0  0  0  0  0  0
  -10.9426    1.0873  -12.1398 H   0  0  0  0  0  0  0  0  0  0  0  0
   -9.5365    1.8241  -16.7963 H   0  0  0  0  0  0  0  0  0  0  0  0
   -8.0886    2.6884  -17.4682 H   0  0  0  0  0  0  0  0  0  0  0  0
   -8.0332    0.3811  -15.4652 H   0  0  0  0  0  0  0  0  0  0  0  0
   -7.6345    0.2774  -17.2123 H   0  0  0  0  0  0  0  0  0  0  0  0
   -3.8250   -0.2770  -19.7530 H   0  0  0  0  0  0  0  0  0  0  0  0
   -1.7920    1.0719  -17.4473 H   0  0  0  0  0  0  0  0  0  0  0  0
   -0.2747    1.2960  -18.4126 H   0  0  0  0  0  0  0  0  0  0  0  0
   -1.3340    2.8790  -19.6160 H   0  0  0  0  0  0  0  0  0  0  0  0
   -2.9016    0.4690  -21.4643 H   0  0  0  0  0  0  0  0  0  0  0  0
   -2.3651    1.9804  -21.0254 H   0  0  0  0  0  0  0  0  0  0  0  0
   -0.5976   -0.0104  -22.2702 H   0  0  0  0  0  0  0  0  0  0  0  0
    0.1872    1.0927  -21.3059 H   0  0  0  0  0  0  0  0  0  0  0  0
   -1.2289   -1.5975  -20.4619 H   0  0  0  0  0  0  0  0  0  0  0  0
    0.0488   -1.0002  -19.5801 H   0  0  0  0  0  0  0  0  0  0  0  0
  1  2  2  0
  2  3  1  1
  3  4  1  0
  4  5  1  0
  5  6  2  0
  6  7  1  0
  7  8  1  0
  8  9  1  0
  9 10  1  0
 10 11  1  0
 11 12  1  0
 12 13  2  0
 13 14  1  0
 14 15  2  0
 15 16  1  0
 15 17  1  0
 17 18  2  0
 11 19  1  0
 19 20  1  0
  7 21  2  0
 21 22  1  0
 22 23  1  0
 23 24  1  0
 24 25  1  0
 25 26  1  0
 24 27  1  0
 27 28  1  0
 28 29  1  0
 22 30  2  0
 30  2  1  0
 30  5  1  0
 20  8  1  0
 29 24  1  0
 18 12  1  0
  3 31  1  0
  3 32  1  0
  4 33  1  0
  4 34  1  0
  9 35  1  0
  9 36  1  0
 10 37  1  0
 10 38  1  0
 11 39  1  0
 14 40  1  0
 17 41  1  0
 19 42  1  0
 19 43  1  0
 20 44  1  0
 20 45  1  0
 23 46  1  0
 25 47  1  0
 25 48  1  0
 26 49  1  0
 27 50  1  0
 27 51  1  0
 28 52  1  0
 28 53  1  0
 29 54  1  0
 29 55  1  0
M  END
>  <meeko>  (7) 
{"is_sidechain": false}

>  <vina_affinity_kcal_mol>  (7) 
-7.378

>  <pose_rank>  (7) 
7

$$$$

     RDKit          3D

 55 59  0  0  0  0  0  0  0  0999 V2000
   -6.2430    2.7270  -16.9130 O   0  0  0  0  0  0  0  0  0  0  0  0
   -7.5830    2.2660  -17.4060 S   0  0  0  0  0  4  0  0  0  0  0  0
   -8.7540    3.6770  -17.2500 C   0  0  0  0  0  0  0  0  0  0  0  0
   -9.2130    3.7350  -15.7960 C   0  0  0  0  0  0  0  0  0  0  0  0
   -9.1910    2.3160  -15.3030 C   0  0  0  0  0  0  0  0  0  0  0  0
   -9.8980    1.9240  -14.2350 N   0  0  0  0  0  0  0  0  0  0  0  0
   -9.7400    0.6470  -13.8430 C   0  0  0  0  0  0  0  0  0  0  0  0
  -10.4680    0.1910  -12.7680 N   0  0  0  0  0  0  0  0  0  0  0  0
  -11.6510    0.9290  -12.3430 C   0  0  0  0  0  0  0  0  0  0  0  0
  -11.8500    0.7930  -10.8360 C   0  0  0  0  0  0  0  0  0  0  0  0
  -11.9610   -0.6760  -10.4050 C   0  0  0  0  0  0  0  0  0  0  0  0
  -11.6200   -0.8020   -8.9370 C   0  0  0  0  0  0  0  0  0  0  0  0
  -11.5870   -2.0340   -8.3910 N   0  0  0  0  0  0  0  0  0  0  0  0
  -11.2550   -2.1110   -7.0830 C   0  0  0  0  0  0  0  0  0  0  0  0
  -10.9530   -1.0160   -6.3110 C   0  0  0  0  0  0  0  0  0  0  0  0
  -10.5360   -1.1470   -4.6580 Cl  0  0  0  0  0  0  0  0  0  0  0  0
  -11.0080    0.1960   -6.9600 C   0  0  0  0  0  0  0  0  0  0  0  0
  -11.3340    0.3330   -8.2660 N   0  0  0  0  0  0  0  0  0  0  0  0
  -11.1130   -1.6200  -11.2730 C   0  0  0  0  0  0  0  0  0  0  0  0
   -9.9490   -0.8910  -11.9410 C   0  0  0  0  0  0  0  0  0  0  0  0
   -8.8990   -0.2090  -14.4660 N   0  0  0  0  0  0  0  0  0  0  0  0
   -8.1870    0.2160  -15.5300 C   0  0  0  0  0  0  0  0  0  0  0  0
   -7.3310   -0.6890  -16.1970 N   0  0  0  0  0  0  0  0  0  0  0  0
   -5.9540   -0.9620  -15.8390 C   0  0  0  0  0  0  0  0  0  0  0  0
   -5.4070   -0.0230  -14.7560 C   0  0  0  0  0  0  0  0  0  0  0  0
   -4.5390    0.9640  -15.3080 O   0  0  0  0  0  0  0  0  0  0  0  0
   -5.0860   -0.9940  -17.1360 C   0  0  0  0  0  0  0  0  0  0  0  0
   -4.3980   -2.2550  -16.5790 C   0  0  0  0  0  0  0  0  0  0  0  0
   -5.6530   -2.4860  -15.7160 C   0  0  0  0  0  0  0  0  0  0  0  0
   -8.3340    1.4980  -15.9930 C   0  0  0  0  0  0  0  0  0  0  0  0
   -8.2491    4.6157  -17.5220 H   0  0  0  0  0  0  0  0  0  0  0  0
   -9.6142    3.5421  -17.9222 H   0  0  0  0  0  0  0  0  0  0  0  0
   -8.5273    4.3574  -15.2024 H   0  0  0  0  0  0  0  0  0  0  0  0
  -10.2150    4.1797  -15.7052 H   0  0  0  0  0  0  0  0  0  0  0  0
  -11.5261    1.9918  -12.5976 H   0  0  0  0  0  0  0  0  0  0  0  0
  -12.5320    0.5180  -12.8578 H   0  0  0  0  0  0  0  0  0  0  0  0
  -10.9927    1.2512  -10.3210 H   0  0  0  0  0  0  0  0  0  0  0  0
  -12.7892    1.2993  -10.5685 H   0  0  0  0  0  0  0  0  0  0  0  0
  -13.0026   -0.9945  -10.5587 H   0  0  0  0  0  0  0  0  0  0  0  0
  -11.2251   -3.1043   -6.6114 H   0  0  0  0  0  0  0  0  0  0  0  0
  -10.7739    1.1041   -6.3851 H   0  0  0  0  0  0  0  0  0  0  0  0
  -10.7114   -2.4226  -10.6370 H   0  0  0  0  0  0  0  0  0  0  0  0
  -11.7593   -2.0261  -12.0650 H   0  0  0  0  0  0  0  0  0  0  0  0
   -9.2837   -0.4767  -11.1692 H   0  0  0  0  0  0  0  0  0  0  0  0
   -9.3848   -1.5962  -12.5690 H   0  0  0  0  0  0  0  0  0  0  0  0
   -7.4480   -0.5680  -17.2050 H   0  0  0  0  0  0  0  0  0  0  0  0
   -6.2503    0.4800  -14.2603 H   0  0  0  0  0  0  0  0  0  0  0  0
   -4.8315   -0.6246  -14.0371 H   0  0  0  0  0  0  0  0  0  0  0  0
   -5.0760    1.4950  -15.9330 H   0  0  0  0  0  0  0  0  0  0  0  0
   -5.6555   -1.1559  -18.0631 H   0  0  0  0  0  0  0  0  0  0  0  0
   -4.5048   -0.1181  -17.4600 H   0  0  0  0  0  0  0  0  0  0  0  0
   -4.2056   -3.0392  -17.3260 H   0  0  0  0  0  0  0  0  0  0  0  0
   -3.3927   -2.2139  -16.1344 H   0  0  0  0  0  0  0  0  0  0  0  0
   -6.4093   -3.1393  -16.1757 H   0  0  0  0  0  0  0  0  0  0  0  0
   -5.5918   -2.9813  -14.7357 H   0  0  0  0  0  0  0  0  0  0  0  0
  1  2  2  0
  2  3  1  1
  3  4  1  0
  4  5  1  0
  5  6  2  0
  6  7  1  0
  7  8  1  0
  8  9  1  0
  9 10  1  0
 10 11  1  0
 11 12  1  0
 12 13  2  0
 13 14  1  0
 14 15  2  0
 15 16  1  0
 15 17  1  0
 17 18  2  0
 11 19  1  0
 19 20  1  0
  7 21  2  0
 21 22  1  0
 22 23  1  0
 23 24  1  0
 24 25  1  0
 25 26  1  0
 24 27  1  0
 27 28  1  0
 28 29  1  0
 22 30  2  0
 30  2  1  0
 30  5  1  0
 20  8  1  0
 29 24  1  0
 18 12  1  0
  3 31  1  0
  3 32  1  0
  4 33  1  0
  4 34  1  0
  9 35  1  0
  9 36  1  0
 10 37  1  0
 10 38  1  0
 11 39  1  0
 14 40  1  0
 17 41  1  0
 19 42  1  0
 19 43  1  0
 20 44  1  0
 20 45  1  0
 23 46  1  0
 25 47  1  0
 25 48  1  0
 26 49  1  0
 27 50  1  0
 27 51  1  0
 28 52  1  0
 28 53  1  0
 29 54  1  0
 29 55  1  0
M  END
>  <meeko>  (8) 
{"is_sidechain": false}

>  <vina_affinity_kcal_mol>  (8) 
-7.371

>  <pose_rank>  (8) 
8

$$$$

     RDKit          3D

 55 59  0  0  0  0  0  0  0  0999 V2000
   -4.1710   -3.0610  -12.6560 O   0  0  0  0  0  0  0  0  0  0  0  0
   -3.9970   -1.6540  -12.1630 S   0  0  0  0  0  4  0  0  0  0  0  0
   -5.1440   -1.4100  -10.7460 C   0  0  0  0  0  0  0  0  0  0  0  0
   -6.5290   -1.1280  -11.3180 C   0  0  0  0  0  0  0  0  0  0  0  0
   -6.2960   -0.4270  -12.6260 C   0  0  0  0  0  0  0  0  0  0  0  0
   -7.2420    0.3220  -13.2080 N   0  0  0  0  0  0  0  0  0  0  0  0
   -6.9440    0.8380  -14.4140 C   0  0  0  0  0  0  0  0  0  0  0  0
   -7.8740    1.6390  -15.0380 N   0  0  0  0  0  0  0  0  0  0  0  0
   -8.4450    1.2120  -16.3090 C   0  0  0  0  0  0  0  0  0  0  0  0
   -8.7880    2.4220  -17.1720 C   0  0  0  0  0  0  0  0  0  0  0  0
   -9.7510    3.3790  -16.4560 C   0  0  0  0  0  0  0  0  0  0  0  0
   -9.6450    4.7580  -17.0680 C   0  0  0  0  0  0  0  0  0  0  0  0
  -10.2090    5.7930  -16.4140 N   0  0  0  0  0  0  0  0  0  0  0  0
  -10.0740    7.0150  -16.9770 C   0  0  0  0  0  0  0  0  0  0  0  0
   -9.4010    7.2380  -18.1540 C   0  0  0  0  0  0  0  0  0  0  0  0
   -9.2470    8.7950  -18.8400 Cl  0  0  0  0  0  0  0  0  0  0  0  0
   -8.8560    6.1190  -18.7420 C   0  0  0  0  0  0  0  0  0  0  0  0
   -8.9590    4.8740  -18.2240 N   0  0  0  0  0  0  0  0  0  0  0  0
   -9.5400    3.4110  -14.9330 C   0  0  0  0  0  0  0  0  0  0  0  0
   -8.1260    2.9860  -14.5420 C   0  0  0  0  0  0  0  0  0  0  0  0
   -5.7650    0.6070  -15.0360 N   0  0  0  0  0  0  0  0  0  0  0  0
   -4.8370   -0.1640  -14.4340 C   0  0  0  0  0  0  0  0  0  0  0  0
   -3.5950   -0.3800  -15.0740 N   0  0  0  0  0  0  0  0  0  0  0  0
   -3.3820   -1.2290  -16.2280 C   0  0  0  0  0  0  0  0  0  0  0  0
   -3.4980   -0.4850  -17.5640 C   0  0  0  0  0  0  0  0  0  0  0  0
   -4.8570   -0.3530  -17.9740 O   0  0  0  0  0  0  0  0  0  0  0  0
   -4.3150   -2.4770  -16.1230 C   0  0  0  0  0  0  0  0  0  0  0  0
   -3.1160   -3.3420  -16.5560 C   0  0  0  0  0  0  0  0  0  0  0  0
   -2.1960   -2.2210  -16.0360 C   0  0  0  0  0  0  0  0  0  0  0  0
   -5.0750   -0.6880  -13.1910 C   0  0  0  0  0  0  0  0  0  0  0  0
   -5.1721   -2.3178  -10.1254 H   0  0  0  0  0  0  0  0  0  0  0  0
   -4.8080   -0.5729  -10.1164 H   0  0  0  0  0  0  0  0  0  0  0  0
   -7.0756   -2.0688  -11.4795 H   0  0  0  0  0  0  0  0  0  0  0  0
   -7.1335   -0.5160  -10.6324 H   0  0  0  0  0  0  0  0  0  0  0  0
   -7.7159    0.5828  -16.8406 H   0  0  0  0  0  0  0  0  0  0  0  0
   -9.3650    0.6418  -16.1129 H   0  0  0  0  0  0  0  0  0  0  0  0
   -7.8606    2.9631  -17.4110 H   0  0  0  0  0  0  0  0  0  0  0  0
   -9.2821    2.0607  -18.0860 H   0  0  0  0  0  0  0  0  0  0  0  0
  -10.7734    3.0004  -16.6020 H   0  0  0  0  0  0  0  0  0  0  0  0
  -10.5273    7.8768  -16.4653 H   0  0  0  0  0  0  0  0  0  0  0  0
   -8.3058    6.2445  -19.6862 H   0  0  0  0  0  0  0  0  0  0  0  0
   -9.7157    4.4350  -14.5716 H   0  0  0  0  0  0  0  0  0  0  0  0
  -10.2462    2.7014  -14.4773 H   0  0  0  0  0  0  0  0  0  0  0  0
   -7.3977    3.6824  -14.9832 H   0  0  0  0  0  0  0  0  0  0  0  0
   -8.0263    3.0002  -13.4466 H   0  0  0  0  0  0  0  0  0  0  0  0
   -2.8780   -0.5170  -14.3590 H   0  0  0  0  0  0  0  0  0  0  0  0
   -3.0593    0.5177  -17.4537 H   0  0  0  0  0  0  0  0  0  0  0  0
   -2.9622   -1.0658  -18.3293 H   0  0  0  0  0  0  0  0  0  0  0  0
   -4.8850    0.3730  -18.6330 H   0  0  0  0  0  0  0  0  0  0  0  0
   -4.6864   -2.6858  -15.1089 H   0  0  0  0  0  0  0  0  0  0  0  0
   -5.2770   -2.5213  -16.6546 H   0  0  0  0  0  0  0  0  0  0  0  0
   -3.0227   -4.2970  -16.0182 H   0  0  0  0  0  0  0  0  0  0  0  0
   -3.0269   -3.7315  -17.5809 H   0  0  0  0  0  0  0  0  0  0  0  0
   -1.8695   -2.3456  -14.9930 H   0  0  0  0  0  0  0  0  0  0  0  0
   -1.2113   -2.0316  -16.4882 H   0  0  0  0  0  0  0  0  0  0  0  0
  1  2  2  0
  2  3  1  1
  3  4  1  0
  4  5  1  0
  5  6  2  0
  6  7  1  0
  7  8  1  0
  8  9  1  0
  9 10  1  0
 10 11  1  0
 11 12  1  0
 12 13  2  0
 13 14  1  0
 14 15  2  0
 15 16  1  0
 15 17  1  0
 17 18  2  0
 11 19  1  0
 19 20  1  0
  7 21  2  0
 21 22  1  0
 22 23  1  0
 23 24  1  0
 24 25  1  0
 25 26  1  0
 24 27  1  0
 27 28  1  0
 28 29  1  0
 22 30  2  0
 30  2  1  0
 30  5  1  0
 20  8  1  0
 29 24  1  0
 18 12  1  0
  3 31  1  0
  3 32  1  0
  4 33  1  0
  4 34  1  0
  9 35  1  0
  9 36  1  0
 10 37  1  0
 10 38  1  0
 11 39  1  0
 14 40  1  0
 17 41  1  0
 19 42  1  0
 19 43  1  0
 20 44  1  0
 20 45  1  0
 23 46  1  0
 25 47  1  0
 25 48  1  0
 26 49  1  0
 27 50  1  0
 27 51  1  0
 28 52  1  0
 28 53  1  0
 29 54  1  0
 29 55  1  0
M  END
>  <meeko>  (9) 
{"is_sidechain": false}

>  <vina_affinity_kcal_mol>  (9) 
-7.359

>  <pose_rank>  (9) 
9

$$$$

     RDKit          3D

 55 59  0  0  0  0  0  0  0  0999 V2000
   -2.7840   -3.5970  -15.9220 O   0  0  0  0  0  0  0  0  0  0  0  0
   -2.9010   -2.8130  -14.6480 S   0  0  0  0  0  4  0  0  0  0  0  0
   -4.1440   -3.6540  -13.5840 C   0  0  0  0  0  0  0  0  0  0  0  0
   -5.5270   -3.2320  -14.0690 C   0  0  0  0  0  0  0  0  0  0  0  0
   -5.3620   -1.8400  -14.6110 C   0  0  0  0  0  0  0  0  0  0  0  0
   -6.4000   -1.0040  -14.7470 N   0  0  0  0  0  0  0  0  0  0  0  0
   -6.1430    0.1890  -15.3130 C   0  0  0  0  0  0  0  0  0  0  0  0
   -7.1730    1.0920  -15.4480 N   0  0  0  0  0  0  0  0  0  0  0  0
   -8.2980    0.7670  -16.3140 C   0  0  0  0  0  0  0  0  0  0  0  0
   -8.8790    2.0350  -16.9320 C   0  0  0  0  0  0  0  0  0  0  0  0
   -9.3120    3.0450  -15.8600 C   0  0  0  0  0  0  0  0  0  0  0  0
   -9.3640    4.4330  -16.4620 C   0  0  0  0  0  0  0  0  0  0  0  0
   -8.3790    4.8020  -17.3040 N   0  0  0  0  0  0  0  0  0  0  0  0
   -8.4710    6.0390  -17.8420 C   0  0  0  0  0  0  0  0  0  0  0  0
   -9.5010    6.9080  -17.5760 C   0  0  0  0  0  0  0  0  0  0  0  0
   -9.5880    8.4660  -18.2730 Cl  0  0  0  0  0  0  0  0  0  0  0  0
  -10.4600    6.4360  -16.7090 C   0  0  0  0  0  0  0  0  0  0  0  0
  -10.4200    5.2090  -16.1420 N   0  0  0  0  0  0  0  0  0  0  0  0
   -8.4280    2.9990  -14.6020 C   0  0  0  0  0  0  0  0  0  0  0  0
   -7.0400    2.4360  -14.9000 C   0  0  0  0  0  0  0  0  0  0  0  0
   -4.9120    0.5390  -15.7510 N   0  0  0  0  0  0  0  0  0  0  0  0
   -3.8880   -0.3280  -15.6150 C   0  0  0  0  0  0  0  0  0  0  0  0
   -2.5970    0.0520  -16.0470 N   0  0  0  0  0  0  0  0  0  0  0  0
   -2.0360   -0.2170  -17.3550 C   0  0  0  0  0  0  0  0  0  0  0  0
   -0.7160   -0.9970  -17.3060 C   0  0  0  0  0  0  0  0  0  0  0  0
   -0.8900   -2.3490  -17.7190 O   0  0  0  0  0  0  0  0  0  0  0  0
   -1.9420    1.1220  -18.1540 C   0  0  0  0  0  0  0  0  0  0  0  0
   -2.4980    0.3680  -19.3760 C   0  0  0  0  0  0  0  0  0  0  0  0
   -3.1110   -0.6500  -18.3960 C   0  0  0  0  0  0  0  0  0  0  0  0
   -4.0860   -1.5440  -15.0150 C   0  0  0  0  0  0  0  0  0  0  0  0
   -4.0335   -4.7451  -13.6688 H   0  0  0  0  0  0  0  0  0  0  0  0
   -4.0024   -3.3744  -12.5296 H   0  0  0  0  0  0  0  0  0  0  0  0
   -5.8801   -3.9115  -14.8587 H   0  0  0  0  0  0  0  0  0  0  0  0
   -6.2690   -3.2659  -13.2577 H   0  0  0  0  0  0  0  0  0  0  0  0
   -7.9556    0.0970  -17.1165 H   0  0  0  0  0  0  0  0  0  0  0  0
   -9.0774    0.2732  -15.7151 H   0  0  0  0  0  0  0  0  0  0  0  0
   -8.1157    2.5009  -17.5726 H   0  0  0  0  0  0  0  0  0  0  0  0
   -9.7678    1.7544  -17.5162 H   0  0  0  0  0  0  0  0  0  0  0  0
  -10.3195    2.7644  -15.5192 H   0  0  0  0  0  0  0  0  0  0  0  0
   -7.6780    6.3673  -18.5300 H   0  0  0  0  0  0  0  0  0  0  0  0
  -11.3067    7.0939  -16.4634 H   0  0  0  0  0  0  0  0  0  0  0  0
   -8.3200    4.0196  -14.2060 H   0  0  0  0  0  0  0  0  0  0  0  0
   -8.9133    2.3378  -13.8690 H   0  0  0  0  0  0  0  0  0  0  0  0
   -6.5305    3.0818  -15.6303 H   0  0  0  0  0  0  0  0  0  0  0  0
   -6.4503    2.3990  -13.9722 H   0  0  0  0  0  0  0  0  0  0  0  0
   -1.9300   -0.1420  -15.2970 H   0  0  0  0  0  0  0  0  0  0  0  0
    0.0109   -0.5107  -17.9732 H   0  0  0  0  0  0  0  0  0  0  0  0
   -0.3557   -0.9985  -16.2667 H   0  0  0  0  0  0  0  0  0  0  0  0
   -1.8280   -2.5790  -17.5480 H   0  0  0  0  0  0  0  0  0  0  0  0
   -2.5926    1.9253  -17.7778 H   0  0  0  0  0  0  0  0  0  0  0  0
   -1.0037    1.6933  -18.2095 H   0  0  0  0  0  0  0  0  0  0  0  0
   -3.2332    0.9339  -19.9670 H   0  0  0  0  0  0  0  0  0  0  0  0
   -1.8451    0.0503  -20.2023 H   0  0  0  0  0  0  0  0  0  0  0  0
   -4.1475   -0.4313  -18.0997 H   0  0  0  0  0  0  0  0  0  0  0  0
   -3.2462   -1.7053  -18.6755 H   0  0  0  0  0  0  0  0  0  0  0  0
  1  2  2  0
  2  3  1  1
  3  4  1  0
  4  5  1  0
  5  6  2  0
  6  7  1  0
  7  8  1  0
  8  9  1  0
  9 10  1  0
 10 11  1  0
 11 12  1  0
 12 13  2  0
 13 14  1  0
 14 15  2  0
 15 16  1  0
 15 17  1  0
 17 18  2  0
 11 19  1  0
 19 20  1  0
  7 21  2  0
 21 22  1  0
 22 23  1  0
 23 24  1  0
 24 25  1  0
 25 26  1  0
 24 27  1  0
 27 28  1  0
 28 29  1  0
 22 30  2  0
 30  2  1  0
 30  5  1  0
 20  8  1  0
 29 24  1  0
 18 12  1  0
  3 31  1  0
  3 32  1  0
  4 33  1  0
  4 34  1  0
  9 35  1  0
  9 36  1  0
 10 37  1  0
 10 38  1  0
 11 39  1  0
 14 40  1  0
 17 41  1  0
 19 42  1  0
 19 43  1  0
 20 44  1  0
 20 45  1  0
 23 46  1  0
 25 47  1  0
 25 48  1  0
 26 49  1  0
 27 50  1  0
 27 51  1  0
 28 52  1  0
 28 53  1  0
 29 54  1  0
 29 55  1  0
M  END
>  <meeko>  (10) 
{"is_sidechain": false}

>  <vina_affinity_kcal_mol>  (10) 
-7.214

>  <pose_rank>  (10) 
10

$$$$
