
     RDKit          3D

 48 50  0  0  0  0  0  0  0  0999 V2000
   -7.4902   -0.3308    3.0858 C   0  0  0  0  0  0  0  0  0  0  0  0
   -7.1574   -0.0267    1.7213 N   0  0  0  0  0  0  0  0  0  0  0  0
   -5.9095   -0.2750    1.1900 C   0  0  0  0  0  0  0  0  0  0  0  0
   -5.0082   -0.8504    1.7883 O   0  0  0  0  0  0  0  0  0  0  0  0
   -5.7227    0.2384   -0.2065 C   0  0  0  0  0  0  0  0  0  0  0  0
   -4.5328   -0.0027   -0.8751 C   0  0  0  0  0  0  0  0  0  0  0  0
   -4.4036    0.5142   -2.1601 C   0  0  0  0  0  0  0  0  0  0  0  0
   -3.2903    0.3230   -2.9475 O   0  0  0  0  0  0  0  0  0  0  0  0
   -2.0591    0.3960   -2.3402 C   0  0  0  0  0  0  0  0  0  0  0  0
   -1.1615   -0.6394   -2.5866 C   0  0  0  0  0  0  0  0  0  0  0  0
    0.1175   -0.6083   -2.0208 C   0  0  0  0  0  0  0  0  0  0  0  0
    0.5128    0.4672   -1.2219 C   0  0  0  0  0  0  0  0  0  0  0  0
    1.7753    0.5624   -0.6002 N   0  0  0  0  0  0  0  0  0  0  0  0
    2.8842   -0.2434   -0.8175 C   0  0  0  0  0  0  0  0  0  0  0  0
    2.9704   -1.1040   -1.6824 O   0  0  0  0  0  0  0  0  0  0  0  0
    3.8858    0.0714    0.0922 N   0  0  0  0  0  0  0  0  0  0  0  0
    5.2002   -0.4373    0.1259 C   0  0  0  0  0  0  0  0  0  0  0  0
    5.7664   -1.2005   -0.8932 C   0  0  0  0  0  0  0  0  0  0  0  0
    7.0835   -1.6580   -0.7866 C   0  0  0  0  0  0  0  0  0  0  0  0
    7.8522   -1.3524    0.3382 C   0  0  0  0  0  0  0  0  0  0  0  0
    9.4684   -1.9541    0.3904 Cl  0  0  0  0  0  0  0  0  0  0  0  0
    7.3115   -0.5813    1.3709 C   0  0  0  0  0  0  0  0  0  0  0  0
    8.1143   -0.2304    2.5936 C   0  0  0  0  0  0  0  0  0  0  0  0
    7.4121    0.5290    3.4865 F   0  0  0  0  0  0  0  0  0  0  0  0
    9.2309    0.4943    2.3108 F   0  0  0  0  0  0  0  0  0  0  0  0
    8.5249   -1.3202    3.2972 F   0  0  0  0  0  0  0  0  0  0  0  0
    5.9806   -0.1277    1.2480 C   0  0  0  0  0  0  0  0  0  0  0  0
   -0.3936    1.5126   -0.9951 C   0  0  0  0  0  0  0  0  0  0  0  0
   -1.6714    1.4860   -1.5617 C   0  0  0  0  0  0  0  0  0  0  0  0
   -5.4614    1.2075   -2.7414 C   0  0  0  0  0  0  0  0  0  0  0  0
   -6.6115    1.3948   -1.9950 C   0  0  0  0  0  0  0  0  0  0  0  0
   -6.7707    0.9355   -0.7361 N   0  0  0  0  0  0  0  0  0  0  0  0
   -6.9928   -1.2497    3.4069 H   0  0  0  0  0  0  0  0  0  0  0  0
   -8.5738   -0.4457    3.1621 H   0  0  0  0  0  0  0  0  0  0  0  0
   -7.1623    0.4996    3.7164 H   0  0  0  0  0  0  0  0  0  0  0  0
   -7.7751    0.5496    1.1549 H   0  0  0  0  0  0  0  0  0  0  0  0
   -3.7444   -0.5802   -0.4051 H   0  0  0  0  0  0  0  0  0  0  0  0
   -1.4536   -1.4797   -3.2109 H   0  0  0  0  0  0  0  0  0  0  0  0
    0.7790   -1.4464   -2.2183 H   0  0  0  0  0  0  0  0  0  0  0  0
    1.9368    1.3966   -0.0573 H   0  0  0  0  0  0  0  0  0  0  0  0
    3.5859    0.5915    0.9029 H   0  0  0  0  0  0  0  0  0  0  0  0
    5.2132   -1.4550   -1.7928 H   0  0  0  0  0  0  0  0  0  0  0  0
    7.5015   -2.2548   -1.5948 H   0  0  0  0  0  0  0  0  0  0  0  0
    5.5552    0.4737    2.0509 H   0  0  0  0  0  0  0  0  0  0  0  0
   -0.1180    2.3667   -0.3822 H   0  0  0  0  0  0  0  0  0  0  0  0
   -2.3513    2.3160   -1.3927 H   0  0  0  0  0  0  0  0  0  0  0  0
   -5.3870    1.5935   -3.7521 H   0  0  0  0  0  0  0  0  0  0  0  0
   -7.4607    1.9346   -2.4054 H   0  0  0  0  0  0  0  0  0  0  0  0
  1  2  1  0
  2  3  1  0
  3  4  2  0
  3  5  1  0
  5  6  2  0
  6  7  1  0
  7  8  1  0
  8  9  1  0
  9 10  1  0
 10 11  2  0
 11 12  1  0
 12 13  1  0
 13 14  1  0
 14 15  2  0
 14 16  1  0
 16 17  1  0
 17 18  1  0
 18 19  2  0
 19 20  1  0
 20 21  1  0
 20 22  2  0
 22 23  1  0
 23 24  1  0
 23 25  1  0
 23 26  1  0
 22 27  1  0
 12 28  2  0
 28 29  1  0
  7 30  2  0
 30 31  1  0
 31 32  2  0
 32  5  1  0
 29  9  2  0
 27 17  2  0
  1 33  1  0
  1 34  1  0
  1 35  1  0
  2 36  1  0
  6 37  1  0
 10 38  1  0
 11 39  1  0
 13 40  1  0
 16 41  1  0
 18 42  1  0
 19 43  1  0
 27 44  1  0
 28 45  1  0
 29 46  1  0
 30 47  1  0
 31 48  1  0
M  END
$$$$
