
     RDKit          3D

 48 50  0  0  0  0  0  0  0  0999 V2000
  -38.1230  164.9560   -7.2080 C   0  0  0  0  0  0  0  0  0  0  0  0
  -38.5090  163.9500   -6.2570 N   0  0  0  0  0  0  0  0  0  0  0  0
  -38.0900  163.9720   -4.9440 C   0  0  0  0  0  0  0  0  0  0  0  0
  -37.4350  164.8790   -4.4450 O   0  0  0  0  0  0  0  0  0  0  0  0
  -38.4890  162.7640   -4.1510 C   0  0  0  0  0  0  0  0  0  0  0  0
  -39.3190  162.9060   -3.0500 C   0  0  0  0  0  0  0  0  0  0  0  0
  -39.6410  161.7560   -2.3370 C   0  0  0  0  0  0  0  0  0  0  0  0
  -40.4790  161.7490   -1.2430 O   0  0  0  0  0  0  0  0  0  0  0  0
  -40.2290  160.8280   -0.2540 C   0  0  0  0  0  0  0  0  0  0  0  0
  -38.9640  160.8400    0.3260 C   0  0  0  0  0  0  0  0  0  0  0  0
  -38.6570  159.9460    1.3580 C   0  0  0  0  0  0  0  0  0  0  0  0
  -39.6190  159.0500    1.8280 C   0  0  0  0  0  0  0  0  0  0  0  0
  -39.3820  158.1060    2.8480 N   0  0  0  0  0  0  0  0  0  0  0  0
  -38.2120  157.3990    3.0870 C   0  0  0  0  0  0  0  0  0  0  0  0
  -37.1510  157.5770    2.5040 O   0  0  0  0  0  0  0  0  0  0  0  0
  -38.4190  156.4580    4.0870 N   0  0  0  0  0  0  0  0  0  0  0  0
  -37.4550  155.6280    4.6940 C   0  0  0  0  0  0  0  0  0  0  0  0
  -37.5210  154.2360    4.7030 C   0  0  0  0  0  0  0  0  0  0  0  0
  -36.5150  153.4840    5.3190 C   0  0  0  0  0  0  0  0  0  0  0  0
  -35.4290  154.1160    5.9280 C   0  0  0  0  0  0  0  0  0  0  0  0
  -34.2320  153.1150    6.6640 Cl  0  0  0  0  0  0  0  0  0  0  0  0
  -35.3340  155.5100    5.9270 C   0  0  0  0  0  0  0  0  0  0  0  0
  -34.1760  156.2210    6.5700 C   0  0  0  0  0  0  0  0  0  0  0  0
  -34.4430  157.5340    6.8340 F   0  0  0  0  0  0  0  0  0  0  0  0
  -33.0580  156.2340    5.7940 F   0  0  0  0  0  0  0  0  0  0  0  0
  -33.8130  155.6830    7.7660 F   0  0  0  0  0  0  0  0  0  0  0  0
  -36.3580  156.2540    5.3010 C   0  0  0  0  0  0  0  0  0  0  0  0
  -40.8960  159.0590    1.2470 C   0  0  0  0  0  0  0  0  0  0  0  0
  -41.2060  159.9530    0.2190 C   0  0  0  0  0  0  0  0  0  0  0  0
  -39.1670  160.5190   -2.7610 C   0  0  0  0  0  0  0  0  0  0  0  0
  -38.3470  160.4770   -3.8740 C   0  0  0  0  0  0  0  0  0  0  0  0
  -37.9850  161.5680   -4.5800 N   0  0  0  0  0  0  0  0  0  0  0  0
  -37.7787  165.8534   -6.6731 H   0  0  0  0  0  0  0  0  0  0  0  0
  -37.3089  164.5706   -7.8394 H   0  0  0  0  0  0  0  0  0  0  0  0
  -38.9860  165.2140   -7.8394 H   0  0  0  0  0  0  0  0  0  0  0  0
  -38.9550  163.0900   -6.5670 H   0  0  0  0  0  0  0  0  0  0  0  0
  -39.7082  163.8906   -2.7515 H   0  0  0  0  0  0  0  0  0  0  0  0
  -38.2045  161.5530   -0.0272 H   0  0  0  0  0  0  0  0  0  0  0  0
  -37.6506  159.9493    1.8020 H   0  0  0  0  0  0  0  0  0  0  0  0
  -40.0820  158.0540    3.5730 H   0  0  0  0  0  0  0  0  0  0  0  0
  -39.3850  156.2360    4.2780 H   0  0  0  0  0  0  0  0  0  0  0  0
  -38.3690  153.7256    4.2230 H   0  0  0  0  0  0  0  0  0  0  0  0
  -36.5800  152.3859    5.3236 H   0  0  0  0  0  0  0  0  0  0  0  0
  -36.2930  157.3520    5.2895 H   0  0  0  0  0  0  0  0  0  0  0  0
  -41.6614  158.3546    1.6047 H   0  0  0  0  0  0  0  0  0  0  0  0
  -42.2165  159.9664   -0.2153 H   0  0  0  0  0  0  0  0  0  0  0  0
  -39.4375  159.5975   -2.2247 H   0  0  0  0  0  0  0  0  0  0  0  0
  -37.9683  159.4978   -4.2023 H   0  0  0  0  0  0  0  0  0  0  0  0
  1  2  1  0
  2  3  1  0
  3  4  2  0
  3  5  1  0
  5  6  2  0
  6  7  1  0
  7  8  1  0
  8  9  1  0
  9 10  1  0
 10 11  2  0
 11 12  1  0
 12 13  1  0
 13 14  1  0
 14 15  2  0
 14 16  1  0
 16 17  1  0
 17 18  1  0
 18 19  2  0
 19 20  1  0
 20 21  1  0
 20 22  2  0
 22 23  1  0
 23 24  1  0
 23 25  1  0
 23 26  1  0
 22 27  1  0
 12 28  2  0
 28 29  1  0
  7 30  2  0
 30 31  1  0
 31 32  2  0
 32  5  1  0
 29  9  2  0
 27 17  2  0
  1 33  1  0
  1 34  1  0
  1 35  1  0
  2 36  1  0
  6 37  1  0
 10 38  1  0
 11 39  1  0
 13 40  1  0
 16 41  1  0
 18 42  1  0
 19 43  1  0
 27 44  1  0
 28 45  1  0
 29 46  1  0
 30 47  1  0
 31 48  1  0
M  END
>  <meeko>  (1) 
{"is_sidechain": false}

>  <vina_affinity_kcal_mol>  (1) 
-10.81

>  <pose_rank>  (1) 
1

$$$$

     RDKit          3D

 48 50  0  0  0  0  0  0  0  0999 V2000
  -37.6680  162.0990   -9.3490 C   0  0  0  0  0  0  0  0  0  0  0  0
  -37.9740  162.5870   -8.0320 N   0  0  0  0  0  0  0  0  0  0  0  0
  -37.1830  162.3120   -6.9370 C   0  0  0  0  0  0  0  0  0  0  0  0
  -36.1140  161.7150   -6.9920 O   0  0  0  0  0  0  0  0  0  0  0  0
  -37.7460  162.7950   -5.6350 C   0  0  0  0  0  0  0  0  0  0  0  0
  -38.6750  162.0210   -4.9570 C   0  0  0  0  0  0  0  0  0  0  0  0
  -39.1820  162.5270   -3.7650 C   0  0  0  0  0  0  0  0  0  0  0  0
  -40.0860  161.8500   -2.9750 O   0  0  0  0  0  0  0  0  0  0  0  0
  -39.5930  160.8990   -2.1130 C   0  0  0  0  0  0  0  0  0  0  0  0
  -39.9340  161.0180   -0.7690 C   0  0  0  0  0  0  0  0  0  0  0  0
  -39.4870  160.0650    0.1550 C   0  0  0  0  0  0  0  0  0  0  0  0
  -38.7140  158.9800   -0.2640 C   0  0  0  0  0  0  0  0  0  0  0  0
  -38.2100  157.9920    0.6060 N   0  0  0  0  0  0  0  0  0  0  0  0
  -38.0510  158.0820    1.9810 C   0  0  0  0  0  0  0  0  0  0  0  0
  -38.4400  159.0110    2.6750 O   0  0  0  0  0  0  0  0  0  0  0  0
  -37.3860  156.9600    2.4580 N   0  0  0  0  0  0  0  0  0  0  0  0
  -37.1370  156.6200    3.8030 C   0  0  0  0  0  0  0  0  0  0  0  0
  -38.0720  156.0090    4.6370 C   0  0  0  0  0  0  0  0  0  0  0  0
  -37.7410  155.6930    5.9590 C   0  0  0  0  0  0  0  0  0  0  0  0
  -36.4710  155.9810    6.4610 C   0  0  0  0  0  0  0  0  0  0  0  0
  -36.1450  155.5590    8.1010 Cl  0  0  0  0  0  0  0  0  0  0  0  0
  -35.5120  156.5870    5.6440 C   0  0  0  0  0  0  0  0  0  0  0  0
  -34.1330  156.9070    6.1520 C   0  0  0  0  0  0  0  0  0  0  0  0
  -33.3920  157.6210    5.2540 F   0  0  0  0  0  0  0  0  0  0  0  0
  -33.3930  155.7970    6.4220 F   0  0  0  0  0  0  0  0  0  0  0  0
  -34.1400  157.6560    7.2870 F   0  0  0  0  0  0  0  0  0  0  0  0
  -35.8620  156.8990    4.3120 C   0  0  0  0  0  0  0  0  0  0  0  0
  -38.3920  158.8620   -1.6250 C   0  0  0  0  0  0  0  0  0  0  0  0
  -38.8400  159.8100   -2.5490 C   0  0  0  0  0  0  0  0  0  0  0  0
  -38.7250  163.7460   -3.2750 C   0  0  0  0  0  0  0  0  0  0  0  0
  -37.7940  164.4450   -4.0220 C   0  0  0  0  0  0  0  0  0  0  0  0
  -37.2940  164.0080   -5.1960 N   0  0  0  0  0  0  0  0  0  0  0  0
  -37.0852  161.1695   -9.2694 H   0  0  0  0  0  0  0  0  0  0  0  0
  -38.6033  161.8999   -9.8927 H   0  0  0  0  0  0  0  0  0  0  0  0
  -37.0814  162.8542   -9.8927 H   0  0  0  0  0  0  0  0  0  0  0  0
  -38.8840  162.9960   -7.8310 H   0  0  0  0  0  0  0  0  0  0  0  0
  -38.9985  161.0446   -5.3467 H   0  0  0  0  0  0  0  0  0  0  0  0
  -40.5550  161.8611   -0.4321 H   0  0  0  0  0  0  0  0  0  0  0  0
  -39.7467  160.1720    1.2185 H   0  0  0  0  0  0  0  0  0  0  0  0
  -38.0990  157.0710    0.2090 H   0  0  0  0  0  0  0  0  0  0  0  0
  -36.8910  156.4220    1.7620 H   0  0  0  0  0  0  0  0  0  0  0  0
  -39.0758  155.7740    4.2535 H   0  0  0  0  0  0  0  0  0  0  0  0
  -38.4881  155.2134    6.6084 H   0  0  0  0  0  0  0  0  0  0  0  0
  -35.1151  157.3728    3.6580 H   0  0  0  0  0  0  0  0  0  0  0  0
  -37.7805  158.0144   -1.9680 H   0  0  0  0  0  0  0  0  0  0  0  0
  -38.5993  159.6972   -3.6164 H   0  0  0  0  0  0  0  0  0  0  0  0
  -39.0944  164.1438   -2.3183 H   0  0  0  0  0  0  0  0  0  0  0  0
  -37.4411  165.4129   -3.6364 H   0  0  0  0  0  0  0  0  0  0  0  0
  1  2  1  0
  2  3  1  0
  3  4  2  0
  3  5  1  0
  5  6  2  0
  6  7  1  0
  7  8  1  0
  8  9  1  0
  9 10  1  0
 10 11  2  0
 11 12  1  0
 12 13  1  0
 13 14  1  0
 14 15  2  0
 14 16  1  0
 16 17  1  0
 17 18  1  0
 18 19  2  0
 19 20  1  0
 20 21  1  0
 20 22  2  0
 22 23  1  0
 23 24  1  0
 23 25  1  0
 23 26  1  0
 22 27  1  0
 12 28  2  0
 28 29  1  0
  7 30  2  0
 30 31  1  0
 31 32  2  0
 32  5  1  0
 29  9  2  0
 27 17  2  0
  1 33  1  0
  1 34  1  0
  1 35  1  0
  2 36  1  0
  6 37  1  0
 10 38  1  0
 11 39  1  0
 13 40  1  0
 16 41  1  0
 18 42  1  0
 19 43  1  0
 27 44  1  0
 28 45  1  0
 29 46  1  0
 30 47  1  0
 31 48  1  0
M  END
>  <meeko>  (2) 
{"is_sidechain": false}

>  <vina_affinity_kcal_mol>  (2) 
-10.511

>  <pose_rank>  (2) 
2

$$$$

     RDKit          3D

 48 50  0  0  0  0  0  0  0  0999 V2000
  -37.3900  162.1350   -9.7060 C   0  0  0  0  0  0  0  0  0  0  0  0
  -37.7500  162.6060   -8.3960 N   0  0  0  0  0  0  0  0  0  0  0  0
  -37.0020  162.3170   -7.2740 C   0  0  0  0  0  0  0  0  0  0  0  0
  -35.9320  161.7220   -7.2940 O   0  0  0  0  0  0  0  0  0  0  0  0
  -37.6180  162.7840   -5.9900 C   0  0  0  0  0  0  0  0  0  0  0  0
  -38.5650  161.9960   -5.3550 C   0  0  0  0  0  0  0  0  0  0  0  0
  -39.1210  162.4860   -4.1770 C   0  0  0  0  0  0  0  0  0  0  0  0
  -40.0480  161.7950   -3.4290 O   0  0  0  0  0  0  0  0  0  0  0  0
  -39.5760  160.8950   -2.5020 C   0  0  0  0  0  0  0  0  0  0  0  0
  -39.7790  161.1960   -1.1590 C   0  0  0  0  0  0  0  0  0  0  0  0
  -39.3480  160.3060   -0.1680 C   0  0  0  0  0  0  0  0  0  0  0  0
  -38.7300  159.1030   -0.5170 C   0  0  0  0  0  0  0  0  0  0  0  0
  -38.2500  158.1650    0.4210 N   0  0  0  0  0  0  0  0  0  0  0  0
  -38.1410  158.3270    1.7940 C   0  0  0  0  0  0  0  0  0  0  0  0
  -38.5610  159.2880    2.4250 O   0  0  0  0  0  0  0  0  0  0  0  0
  -37.4860  157.2370    2.3520 N   0  0  0  0  0  0  0  0  0  0  0  0
  -37.2830  156.9700    3.7210 C   0  0  0  0  0  0  0  0  0  0  0  0
  -36.9300  157.9380    4.6600 C   0  0  0  0  0  0  0  0  0  0  0  0
  -36.7590  157.5910    6.0040 C   0  0  0  0  0  0  0  0  0  0  0  0
  -36.9430  156.2730    6.4260 C   0  0  0  0  0  0  0  0  0  0  0  0
  -36.7130  155.9300    8.1010 Cl  0  0  0  0  0  0  0  0  0  0  0  0
  -37.3050  155.2840    5.5070 C   0  0  0  0  0  0  0  0  0  0  0  0
  -37.5160  153.8560    5.9290 C   0  0  0  0  0  0  0  0  0  0  0  0
  -37.9540  153.0630    4.9080 F   0  0  0  0  0  0  0  0  0  0  0  0
  -38.4480  153.7210    6.9110 F   0  0  0  0  0  0  0  0  0  0  0  0
  -36.3820  153.2590    6.3850 F   0  0  0  0  0  0  0  0  0  0  0  0
  -37.4740  155.6510    4.1540 C   0  0  0  0  0  0  0  0  0  0  0  0
  -38.5470  158.8030   -1.8750 C   0  0  0  0  0  0  0  0  0  0  0  0
  -38.9800  159.6880   -2.8660 C   0  0  0  0  0  0  0  0  0  0  0  0
  -38.6930  163.7050   -3.6600 C   0  0  0  0  0  0  0  0  0  0  0  0
  -37.7410  164.4180   -4.3640 C   0  0  0  0  0  0  0  0  0  0  0  0
  -37.1940  163.9960   -5.5240 N   0  0  0  0  0  0  0  0  0  0  0  0
  -36.7244  161.2642   -9.6125 H   0  0  0  0  0  0  0  0  0  0  0  0
  -38.2987  161.8448  -10.2538 H   0  0  0  0  0  0  0  0  0  0  0  0
  -36.8715  162.9356  -10.2538 H   0  0  0  0  0  0  0  0  0  0  0  0
  -38.6670  163.0130   -8.2280 H   0  0  0  0  0  0  0  0  0  0  0  0
  -38.8655  161.0210   -5.7662 H   0  0  0  0  0  0  0  0  0  0  0  0
  -40.2786  162.1341   -0.8755 H   0  0  0  0  0  0  0  0  0  0  0  0
  -39.4971  160.5558    0.8928 H   0  0  0  0  0  0  0  0  0  0  0  0
  -38.1190  157.2260    0.0770 H   0  0  0  0  0  0  0  0  0  0  0  0
  -36.9630  156.6690    1.7030 H   0  0  0  0  0  0  0  0  0  0  0  0
  -36.7851  158.9810    4.3419 H   0  0  0  0  0  0  0  0  0  0  0  0
  -36.4771  158.3632    6.7349 H   0  0  0  0  0  0  0  0  0  0  0  0
  -37.7627  154.8825    3.4218 H   0  0  0  0  0  0  0  0  0  0  0  0
  -38.0574  157.8610   -2.1629 H   0  0  0  0  0  0  0  0  0  0  0  0
  -38.8513  159.4337   -3.9284 H   0  0  0  0  0  0  0  0  0  0  0  0
  -39.1021  164.0914   -2.7148 H   0  0  0  0  0  0  0  0  0  0  0  0
  -37.4101  165.3844   -3.9559 H   0  0  0  0  0  0  0  0  0  0  0  0
  1  2  1  0
  2  3  1  0
  3  4  2  0
  3  5  1  0
  5  6  2  0
  6  7  1  0
  7  8  1  0
  8  9  1  0
  9 10  1  0
 10 11  2  0
 11 12  1  0
 12 13  1  0
 13 14  1  0
 14 15  2  0
 14 16  1  0
 16 17  1  0
 17 18  1  0
 18 19  2  0
 19 20  1  0
 20 21  1  0
 20 22  2  0
 22 23  1  0
 23 24  1  0
 23 25  1  0
 23 26  1  0
 22 27  1  0
 12 28  2  0
 28 29  1  0
  7 30  2  0
 30 31  1  0
 31 32  2  0
 32  5  1  0
 29  9  2  0
 27 17  2  0
  1 33  1  0
  1 34  1  0
  1 35  1  0
  2 36  1  0
  6 37  1  0
 10 38  1  0
 11 39  1  0
 13 40  1  0
 16 41  1  0
 18 42  1  0
 19 43  1  0
 27 44  1  0
 28 45  1  0
 29 46  1  0
 30 47  1  0
 31 48  1  0
M  END
>  <meeko>  (3) 
{"is_sidechain": false}

>  <vina_affinity_kcal_mol>  (3) 
-10.488

>  <pose_rank>  (3) 
3

$$$$

     RDKit          3D

 48 50  0  0  0  0  0  0  0  0999 V2000
  -33.7350  152.7140    5.2000 C   0  0  0  0  0  0  0  0  0  0  0  0
  -34.3100  154.0270    5.0880 N   0  0  0  0  0  0  0  0  0  0  0  0
  -35.6060  154.3030    5.4700 C   0  0  0  0  0  0  0  0  0  0  0  0
  -36.3500  153.4970    6.0150 O   0  0  0  0  0  0  0  0  0  0  0  0
  -36.0570  155.6950    5.1460 C   0  0  0  0  0  0  0  0  0  0  0  0
  -37.3490  155.9120    4.6920 C   0  0  0  0  0  0  0  0  0  0  0  0
  -37.7100  157.2200    4.3850 C   0  0  0  0  0  0  0  0  0  0  0  0
  -38.9680  157.5800    3.9550 O   0  0  0  0  0  0  0  0  0  0  0  0
  -39.0910  158.0600    2.6730 C   0  0  0  0  0  0  0  0  0  0  0  0
  -40.2610  158.7430    2.3550 C   0  0  0  0  0  0  0  0  0  0  0  0
  -40.4330  159.2820    1.0740 C   0  0  0  0  0  0  0  0  0  0  0  0
  -39.4280  159.1560    0.1130 C   0  0  0  0  0  0  0  0  0  0  0  0
  -39.5340  159.6520   -1.2040 N   0  0  0  0  0  0  0  0  0  0  0  0
  -39.0700  160.8670   -1.6860 C   0  0  0  0  0  0  0  0  0  0  0  0
  -38.3840  161.6600   -1.0540 O   0  0  0  0  0  0  0  0  0  0  0  0
  -39.4960  161.0540   -2.9940 N   0  0  0  0  0  0  0  0  0  0  0  0
  -39.1410  162.1010   -3.8680 C   0  0  0  0  0  0  0  0  0  0  0  0
  -39.2010  163.4520   -3.5300 C   0  0  0  0  0  0  0  0  0  0  0  0
  -38.8190  164.4310   -4.4530 C   0  0  0  0  0  0  0  0  0  0  0  0
  -38.3670  164.0700   -5.7240 C   0  0  0  0  0  0  0  0  0  0  0  0
  -37.9150  165.3380   -6.8020 Cl  0  0  0  0  0  0  0  0  0  0  0  0
  -38.2890  162.7220   -6.0860 C   0  0  0  0  0  0  0  0  0  0  0  0
  -37.8030  162.2990   -7.4450 C   0  0  0  0  0  0  0  0  0  0  0  0
  -37.9320  160.9570   -7.6580 F   0  0  0  0  0  0  0  0  0  0  0  0
  -36.4840  162.5670   -7.6480 F   0  0  0  0  0  0  0  0  0  0  0  0
  -38.4810  162.8910   -8.4660 F   0  0  0  0  0  0  0  0  0  0  0  0
  -38.6790  161.7470   -5.1430 C   0  0  0  0  0  0  0  0  0  0  0  0
  -38.2460  158.4810    0.4510 C   0  0  0  0  0  0  0  0  0  0  0  0
  -38.0700  157.9460    1.7300 C   0  0  0  0  0  0  0  0  0  0  0  0
  -36.8010  158.2560    4.5760 C   0  0  0  0  0  0  0  0  0  0  0  0
  -35.5350  157.9410    5.0360 C   0  0  0  0  0  0  0  0  0  0  0  0
  -35.1320  156.6850    5.3200 N   0  0  0  0  0  0  0  0  0  0  0  0
  -33.6208  152.4532    6.2625 H   0  0  0  0  0  0  0  0  0  0  0  0
  -34.3949  151.9819    4.7116 H   0  0  0  0  0  0  0  0  0  0  0  0
  -32.7494  152.7024    4.7116 H   0  0  0  0  0  0  0  0  0  0  0  0
  -33.8390  154.7530    4.5520 H   0  0  0  0  0  0  0  0  0  0  0  0
  -38.0614  155.0816    4.5789 H   0  0  0  0  0  0  0  0  0  0  0  0
  -41.0517  158.8596    3.1108 H   0  0  0  0  0  0  0  0  0  0  0  0
  -41.3659  159.8081    0.8233 H   0  0  0  0  0  0  0  0  0  0  0  0
  -39.8380  158.9890   -1.9010 H   0  0  0  0  0  0  0  0  0  0  0  0
  -40.2640  160.4680   -3.2870 H   0  0  0  0  0  0  0  0  0  0  0  0
  -39.5511  163.7502   -2.5307 H   0  0  0  0  0  0  0  0  0  0  0  0
  -38.8751  165.4939   -4.1755 H   0  0  0  0  0  0  0  0  0  0  0  0
  -38.6189  160.6830   -5.4154 H   0  0  0  0  0  0  0  0  0  0  0  0
  -37.4487  158.3715   -0.2989 H   0  0  0  0  0  0  0  0  0  0  0  0
  -37.1304  157.4373    1.9917 H   0  0  0  0  0  0  0  0  0  0  0  0
  -37.0819  159.2987    4.3666 H   0  0  0  0  0  0  0  0  0  0  0  0
  -34.8159  158.7611    5.1784 H   0  0  0  0  0  0  0  0  0  0  0  0
  1  2  1  0
  2  3  1  0
  3  4  2  0
  3  5  1  0
  5  6  2  0
  6  7  1  0
  7  8  1  0
  8  9  1  0
  9 10  1  0
 10 11  2  0
 11 12  1  0
 12 13  1  0
 13 14  1  0
 14 15  2  0
 14 16  1  0
 16 17  1  0
 17 18  1  0
 18 19  2  0
 19 20  1  0
 20 21  1  0
 20 22  2  0
 22 23  1  0
 23 24  1  0
 23 25  1  0
 23 26  1  0
 22 27  1  0
 12 28  2  0
 28 29  1  0
  7 30  2  0
 30 31  1  0
 31 32  2  0
 32  5  1  0
 29  9  2  0
 27 17  2  0
  1 33  1  0
  1 34  1  0
  1 35  1  0
  2 36  1  0
  6 37  1  0
 10 38  1  0
 11 39  1  0
 13 40  1  0
 16 41  1  0
 18 42  1  0
 19 43  1  0
 27 44  1  0
 28 45  1  0
 29 46  1  0
 30 47  1  0
 31 48  1  0
M  END
>  <meeko>  (4) 
{"is_sidechain": false}

>  <vina_affinity_kcal_mol>  (4) 
-10.461

>  <pose_rank>  (4) 
4

$$$$

     RDKit          3D

 48 50  0  0  0  0  0  0  0  0999 V2000
  -35.6790  168.1430  -11.4120 C   0  0  0  0  0  0  0  0  0  0  0  0
  -36.1000  166.7960  -11.1400 N   0  0  0  0  0  0  0  0  0  0  0  0
  -37.4120  166.3910  -11.2620 C   0  0  0  0  0  0  0  0  0  0  0  0
  -38.3140  167.0990  -11.6910 O   0  0  0  0  0  0  0  0  0  0  0  0
  -37.6660  164.9870  -10.8020 C   0  0  0  0  0  0  0  0  0  0  0  0
  -36.9030  164.4490   -9.7780 C   0  0  0  0  0  0  0  0  0  0  0  0
  -37.1650  163.1350   -9.4050 C   0  0  0  0  0  0  0  0  0  0  0  0
  -36.5040  162.4880   -8.3830 O   0  0  0  0  0  0  0  0  0  0  0  0
  -37.1120  162.4570   -7.1500 C   0  0  0  0  0  0  0  0  0  0  0  0
  -36.9450  163.5670   -6.3270 C   0  0  0  0  0  0  0  0  0  0  0  0
  -37.5630  163.6090   -5.0720 C   0  0  0  0  0  0  0  0  0  0  0  0
  -38.3660  162.5500   -4.6420 C   0  0  0  0  0  0  0  0  0  0  0  0
  -39.0040  162.5070   -3.3860 N   0  0  0  0  0  0  0  0  0  0  0  0
  -39.3480  161.3800   -2.6530 C   0  0  0  0  0  0  0  0  0  0  0  0
  -39.0400  160.2320   -2.9430 O   0  0  0  0  0  0  0  0  0  0  0  0
  -40.0940  161.7450   -1.5400 N   0  0  0  0  0  0  0  0  0  0  0  0
  -40.5320  160.9100   -0.4920 C   0  0  0  0  0  0  0  0  0  0  0  0
  -41.8670  160.7570   -0.1240 C   0  0  0  0  0  0  0  0  0  0  0  0
  -42.2200  159.8970    0.9220 C   0  0  0  0  0  0  0  0  0  0  0  0
  -41.2400  159.1770    1.6080 C   0  0  0  0  0  0  0  0  0  0  0  0
  -41.7590  158.1390    2.8840 Cl  0  0  0  0  0  0  0  0  0  0  0  0
  -39.8940  159.3050    1.2540 C   0  0  0  0  0  0  0  0  0  0  0  0
  -38.8150  158.5400    1.9700 C   0  0  0  0  0  0  0  0  0  0  0  0
  -37.5940  158.6650    1.3720 F   0  0  0  0  0  0  0  0  0  0  0  0
  -39.0530  157.2010    2.0200 F   0  0  0  0  0  0  0  0  0  0  0  0
  -38.6290  158.9500    3.2540 F   0  0  0  0  0  0  0  0  0  0  0  0
  -39.5560  160.1770    0.1970 C   0  0  0  0  0  0  0  0  0  0  0  0
  -38.5410  161.4450   -5.4880 C   0  0  0  0  0  0  0  0  0  0  0  0
  -37.9280  161.4020   -6.7430 C   0  0  0  0  0  0  0  0  0  0  0  0
  -38.1880  162.4260  -10.0260 C   0  0  0  0  0  0  0  0  0  0  0  0
  -38.8970  163.0490  -11.0370 C   0  0  0  0  0  0  0  0  0  0  0  0
  -38.6600  164.3110  -11.4510 N   0  0  0  0  0  0  0  0  0  0  0  0
  -35.5130  168.6740  -10.4630 H   0  0  0  0  0  0  0  0  0  0  0  0
  -34.7436  168.1251  -11.9906 H   0  0  0  0  0  0  0  0  0  0  0  0
  -36.4581  168.6609  -11.9906 H   0  0  0  0  0  0  0  0  0  0  0  0
  -35.4740  166.1440  -10.6720 H   0  0  0  0  0  0  0  0  0  0  0  0
  -36.1199  165.0388   -9.2791 H   0  0  0  0  0  0  0  0  0  0  0  0
  -36.3266  164.4122   -6.6634 H   0  0  0  0  0  0  0  0  0  0  0  0
  -37.4153  164.4822   -4.4195 H   0  0  0  0  0  0  0  0  0  0  0  0
  -39.0770  163.3880   -2.8980 H   0  0  0  0  0  0  0  0  0  0  0  0
  -40.4990  162.6680   -1.5750 H   0  0  0  0  0  0  0  0  0  0  0  0
  -42.6488  161.3159   -0.6592 H   0  0  0  0  0  0  0  0  0  0  0  0
  -43.2771  159.7875    1.2058 H   0  0  0  0  0  0  0  0  0  0  0  0
  -38.5004  160.2840   -0.0933 H   0  0  0  0  0  0  0  0  0  0  0  0
  -39.1679  160.6028   -5.1598 H   0  0  0  0  0  0  0  0  0  0  0  0
  -38.0884  160.5397   -7.4069 H   0  0  0  0  0  0  0  0  0  0  0  0
  -38.4269  161.3965   -9.7209 H   0  0  0  0  0  0  0  0  0  0  0  0
  -39.7001  162.4831  -11.5319 H   0  0  0  0  0  0  0  0  0  0  0  0
  1  2  1  0
  2  3  1  0
  3  4  2  0
  3  5  1  0
  5  6  2  0
  6  7  1  0
  7  8  1  0
  8  9  1  0
  9 10  1  0
 10 11  2  0
 11 12  1  0
 12 13  1  0
 13 14  1  0
 14 15  2  0
 14 16  1  0
 16 17  1  0
 17 18  1  0
 18 19  2  0
 19 20  1  0
 20 21  1  0
 20 22  2  0
 22 23  1  0
 23 24  1  0
 23 25  1  0
 23 26  1  0
 22 27  1  0
 12 28  2  0
 28 29  1  0
  7 30  2  0
 30 31  1  0
 31 32  2  0
 32  5  1  0
 29  9  2  0
 27 17  2  0
  1 33  1  0
  1 34  1  0
  1 35  1  0
  2 36  1  0
  6 37  1  0
 10 38  1  0
 11 39  1  0
 13 40  1  0
 16 41  1  0
 18 42  1  0
 19 43  1  0
 27 44  1  0
 28 45  1  0
 29 46  1  0
 30 47  1  0
 31 48  1  0
M  END
>  <meeko>  (5) 
{"is_sidechain": false}

>  <vina_affinity_kcal_mol>  (5) 
-10.413

>  <pose_rank>  (5) 
5

$$$$

     RDKit          3D

 48 50  0  0  0  0  0  0  0  0999 V2000
  -37.9840  164.4270   -7.6080 C   0  0  0  0  0  0  0  0  0  0  0  0
  -38.3280  163.8850   -6.3220 N   0  0  0  0  0  0  0  0  0  0  0  0
  -38.3930  164.6600   -5.1840 C   0  0  0  0  0  0  0  0  0  0  0  0
  -38.2570  165.8770   -5.1710 O   0  0  0  0  0  0  0  0  0  0  0  0
  -38.6330  163.8830   -3.9250 C   0  0  0  0  0  0  0  0  0  0  0  0
  -39.0820  162.5740   -3.9990 C   0  0  0  0  0  0  0  0  0  0  0  0
  -39.3090  161.9050   -2.8010 C   0  0  0  0  0  0  0  0  0  0  0  0
  -39.7250  160.5930   -2.7290 O   0  0  0  0  0  0  0  0  0  0  0  0
  -39.6100  159.9540   -1.5180 C   0  0  0  0  0  0  0  0  0  0  0  0
  -40.5620  160.2470   -0.5470 C   0  0  0  0  0  0  0  0  0  0  0  0
  -40.5170  159.6070    0.6970 C   0  0  0  0  0  0  0  0  0  0  0  0
  -39.5310  158.6560    0.9680 C   0  0  0  0  0  0  0  0  0  0  0  0
  -39.4050  157.9830    2.2010 N   0  0  0  0  0  0  0  0  0  0  0  0
  -38.2320  157.6270    2.8510 C   0  0  0  0  0  0  0  0  0  0  0  0
  -37.1060  157.9500    2.4980 O   0  0  0  0  0  0  0  0  0  0  0  0
  -38.5220  156.8480    3.9640 N   0  0  0  0  0  0  0  0  0  0  0  0
  -37.6200  156.3870    4.9440 C   0  0  0  0  0  0  0  0  0  0  0  0
  -36.9220  157.2230    5.8140 C   0  0  0  0  0  0  0  0  0  0  0  0
  -36.0520  156.6840    6.7680 C   0  0  0  0  0  0  0  0  0  0  0  0
  -35.8740  155.3030    6.8650 C   0  0  0  0  0  0  0  0  0  0  0  0
  -34.7840  154.7210    8.0690 Cl  0  0  0  0  0  0  0  0  0  0  0  0
  -36.5680  154.4420    6.0110 C   0  0  0  0  0  0  0  0  0  0  0  0
  -36.4020  152.9490    6.0920 C   0  0  0  0  0  0  0  0  0  0  0  0
  -35.1060  152.5520    5.9260 F   0  0  0  0  0  0  0  0  0  0  0  0
  -37.1050  152.2800    5.1380 F   0  0  0  0  0  0  0  0  0  0  0  0
  -36.7840  152.4320    7.2910 F   0  0  0  0  0  0  0  0  0  0  0  0
  -37.4410  155.0020    5.0540 C   0  0  0  0  0  0  0  0  0  0  0  0
  -38.5870  158.3550   -0.0250 C   0  0  0  0  0  0  0  0  0  0  0  0
  -38.6330  158.9910   -1.2690 C   0  0  0  0  0  0  0  0  0  0  0  0
  -39.0480  162.5380   -1.5900 C   0  0  0  0  0  0  0  0  0  0  0  0
  -38.6000  163.8470   -1.6170 C   0  0  0  0  0  0  0  0  0  0  0  0
  -38.3910  164.5440   -2.7540 N   0  0  0  0  0  0  0  0  0  0  0  0
  -37.3990  165.3487   -7.4729 H   0  0  0  0  0  0  0  0  0  0  0  0
  -37.3865  163.6923   -8.1677 H   0  0  0  0  0  0  0  0  0  0  0  0
  -38.9032  164.6548   -8.1677 H   0  0  0  0  0  0  0  0  0  0  0  0
  -38.3550  162.8780   -6.1770 H   0  0  0  0  0  0  0  0  0  0  0  0
  -39.2524  162.0828   -4.9684 H   0  0  0  0  0  0  0  0  0  0  0  0
  -41.3518  160.9832   -0.7572 H   0  0  0  0  0  0  0  0  0  0  0  0
  -41.2632  159.8548    1.4662 H   0  0  0  0  0  0  0  0  0  0  0  0
  -40.2530  157.8910    2.7420 H   0  0  0  0  0  0  0  0  0  0  0  0
  -39.4440  156.4380    3.9770 H   0  0  0  0  0  0  0  0  0  0  0  0
  -37.0560  158.3129    5.7501 H   0  0  0  0  0  0  0  0  0  0  0  0
  -35.5040  157.3538    7.4469 H   0  0  0  0  0  0  0  0  0  0  0  0
  -37.9947  154.3343    4.3776 H   0  0  0  0  0  0  0  0  0  0  0  0
  -37.8025  157.6109    0.1773 H   0  0  0  0  0  0  0  0  0  0  0  0
  -37.9011  158.7327   -2.0485 H   0  0  0  0  0  0  0  0  0  0  0  0
  -39.1940  162.0114   -0.6353 H   0  0  0  0  0  0  0  0  0  0  0  0
  -38.4030  164.3479   -0.6577 H   0  0  0  0  0  0  0  0  0  0  0  0
  1  2  1  0
  2  3  1  0
  3  4  2  0
  3  5  1  0
  5  6  2  0
  6  7  1  0
  7  8  1  0
  8  9  1  0
  9 10  1  0
 10 11  2  0
 11 12  1  0
 12 13  1  0
 13 14  1  0
 14 15  2  0
 14 16  1  0
 16 17  1  0
 17 18  1  0
 18 19  2  0
 19 20  1  0
 20 21  1  0
 20 22  2  0
 22 23  1  0
 23 24  1  0
 23 25  1  0
 23 26  1  0
 22 27  1  0
 12 28  2  0
 28 29  1  0
  7 30  2  0
 30 31  1  0
 31 32  2  0
 32  5  1  0
 29  9  2  0
 27 17  2  0
  1 33  1  0
  1 34  1  0
  1 35  1  0
  2 36  1  0
  6 37  1  0
 10 38  1  0
 11 39  1  0
 13 40  1  0
 16 41  1  0
 18 42  1  0
 19 43  1  0
 27 44  1  0
 28 45  1  0
 29 46  1  0
 30 47  1  0
 31 48  1  0
M  END
>  <meeko>  (6) 
{"is_sidechain": false}

>  <vina_affinity_kcal_mol>  (6) 
-10.358

>  <pose_rank>  (6) 
6

$$$$

     RDKit          3D

 48 50  0  0  0  0  0  0  0  0999 V2000
  -38.0810  164.6930   -6.8760 C   0  0  0  0  0  0  0  0  0  0  0  0
  -38.4980  163.6840   -5.9410 N   0  0  0  0  0  0  0  0  0  0  0  0
  -38.2680  163.7900   -4.5850 C   0  0  0  0  0  0  0  0  0  0  0  0
  -37.7790  164.7740   -4.0450 O   0  0  0  0  0  0  0  0  0  0  0  0
  -38.6570  162.5730   -3.8000 C   0  0  0  0  0  0  0  0  0  0  0  0
  -39.4200  162.7110   -2.6510 C   0  0  0  0  0  0  0  0  0  0  0  0
  -39.7340  161.5520   -1.9480 C   0  0  0  0  0  0  0  0  0  0  0  0
  -40.5100  161.5410   -0.8100 O   0  0  0  0  0  0  0  0  0  0  0  0
  -40.1920  160.6300    0.1700 C   0  0  0  0  0  0  0  0  0  0  0  0
  -41.2290  159.8590    0.6860 C   0  0  0  0  0  0  0  0  0  0  0  0
  -40.9640  158.8930    1.6650 C   0  0  0  0  0  0  0  0  0  0  0  0
  -39.6600  158.6810    2.1170 C   0  0  0  0  0  0  0  0  0  0  0  0
  -39.3160  157.7450    3.1120 N   0  0  0  0  0  0  0  0  0  0  0  0
  -38.0990  157.0990    3.2770 C   0  0  0  0  0  0  0  0  0  0  0  0
  -37.0840  157.3360    2.6360 O   0  0  0  0  0  0  0  0  0  0  0  0
  -38.1980  156.1420    4.2780 N   0  0  0  0  0  0  0  0  0  0  0  0
  -37.1590  155.3600    4.8210 C   0  0  0  0  0  0  0  0  0  0  0  0
  -35.9000  155.8590    5.1500 C   0  0  0  0  0  0  0  0  0  0  0  0
  -34.9250  155.0180    5.6970 C   0  0  0  0  0  0  0  0  0  0  0  0
  -35.2010  153.6680    5.9250 C   0  0  0  0  0  0  0  0  0  0  0  0
  -33.9450  152.6990    6.6030 Cl  0  0  0  0  0  0  0  0  0  0  0  0
  -36.4580  153.1430    5.6120 C   0  0  0  0  0  0  0  0  0  0  0  0
  -36.7880  151.6950    5.8500 C   0  0  0  0  0  0  0  0  0  0  0  0
  -38.0880  151.3950    5.5560 F   0  0  0  0  0  0  0  0  0  0  0  0
  -36.6180  151.3140    7.1450 F   0  0  0  0  0  0  0  0  0  0  0  0
  -36.0440  150.8440    5.0930 F   0  0  0  0  0  0  0  0  0  0  0  0
  -37.4300  154.0060    5.0610 C   0  0  0  0  0  0  0  0  0  0  0  0
  -38.6210  159.4530    1.5750 C   0  0  0  0  0  0  0  0  0  0  0  0
  -38.8820  160.4150    0.5960 C   0  0  0  0  0  0  0  0  0  0  0  0
  -39.3190  160.3140   -2.4260 C   0  0  0  0  0  0  0  0  0  0  0  0
  -38.5630  160.2770   -3.5840 C   0  0  0  0  0  0  0  0  0  0  0  0
  -38.2110  161.3760   -4.2840 N   0  0  0  0  0  0  0  0  0  0  0  0
  -37.7170  165.5738   -6.3268 H   0  0  0  0  0  0  0  0  0  0  0  0
  -37.2734  164.2956   -7.5084 H   0  0  0  0  0  0  0  0  0  0  0  0
  -38.9335  164.9817   -7.5084 H   0  0  0  0  0  0  0  0  0  0  0  0
  -38.8120  162.7730   -6.2690 H   0  0  0  0  0  0  0  0  0  0  0  0
  -39.7638  163.6981   -2.3084 H   0  0  0  0  0  0  0  0  0  0  0  0
  -42.2573  160.0082    0.3249 H   0  0  0  0  0  0  0  0  0  0  0  0
  -41.7895  158.2968    2.0810 H   0  0  0  0  0  0  0  0  0  0  0  0
  -39.9690  157.6520    3.8750 H   0  0  0  0  0  0  0  0  0  0  0  0
  -39.1380  155.8680    4.5220 H   0  0  0  0  0  0  0  0  0  0  0  0
  -35.6714  156.9212    4.9784 H   0  0  0  0  0  0  0  0  0  0  0  0
  -33.9339  155.4229    5.9493 H   0  0  0  0  0  0  0  0  0  0  0  0
  -38.4244  153.6059    4.8140 H   0  0  0  0  0  0  0  0  0  0  0  0
  -37.5895  159.2990    1.9248 H   0  0  0  0  0  0  0  0  0  0  0  0
  -38.0574  161.0003    0.1631 H   0  0  0  0  0  0  0  0  0  0  0  0
  -39.5851  159.3872   -1.8966 H   0  0  0  0  0  0  0  0  0  0  0  0
  -38.2300  159.2965   -3.9552 H   0  0  0  0  0  0  0  0  0  0  0  0
  1  2  1  0
  2  3  1  0
  3  4  2  0
  3  5  1  0
  5  6  2  0
  6  7  1  0
  7  8  1  0
  8  9  1  0
  9 10  1  0
 10 11  2  0
 11 12  1  0
 12 13  1  0
 13 14  1  0
 14 15  2  0
 14 16  1  0
 16 17  1  0
 17 18  1  0
 18 19  2  0
 19 20  1  0
 20 21  1  0
 20 22  2  0
 22 23  1  0
 23 24  1  0
 23 25  1  0
 23 26  1  0
 22 27  1  0
 12 28  2  0
 28 29  1  0
  7 30  2  0
 30 31  1  0
 31 32  2  0
 32  5  1  0
 29  9  2  0
 27 17  2  0
  1 33  1  0
  1 34  1  0
  1 35  1  0
  2 36  1  0
  6 37  1  0
 10 38  1  0
 11 39  1  0
 13 40  1  0
 16 41  1  0
 18 42  1  0
 19 43  1  0
 27 44  1  0
 28 45  1  0
 29 46  1  0
 30 47  1  0
 31 48  1  0
M  END
>  <meeko>  (7) 
{"is_sidechain": false}

>  <vina_affinity_kcal_mol>  (7) 
-10.33

>  <pose_rank>  (7) 
7

$$$$

     RDKit          3D

 48 50  0  0  0  0  0  0  0  0999 V2000
  -34.8180  148.5850    2.5180 C   0  0  0  0  0  0  0  0  0  0  0  0
  -34.8330  149.2140    3.8110 N   0  0  0  0  0  0  0  0  0  0  0  0
  -34.8500  148.4930    4.9860 C   0  0  0  0  0  0  0  0  0  0  0  0
  -34.7640  147.2730    5.0460 O   0  0  0  0  0  0  0  0  0  0  0  0
  -35.0020  149.3320    6.2190 C   0  0  0  0  0  0  0  0  0  0  0  0
  -34.9130  150.7120    6.1270 C   0  0  0  0  0  0  0  0  0  0  0  0
  -35.0390  151.4420    7.3040 C   0  0  0  0  0  0  0  0  0  0  0  0
  -35.0030  152.8190    7.3530 O   0  0  0  0  0  0  0  0  0  0  0  0
  -35.7650  153.5090    6.4410 C   0  0  0  0  0  0  0  0  0  0  0  0
  -35.2560  154.7140    5.9640 C   0  0  0  0  0  0  0  0  0  0  0  0
  -35.9710  155.4490    5.0110 C   0  0  0  0  0  0  0  0  0  0  0  0
  -37.1880  154.9740    4.5170 C   0  0  0  0  0  0  0  0  0  0  0  0
  -37.9760  155.6650    3.5740 N   0  0  0  0  0  0  0  0  0  0  0  0
  -37.7470  156.9280    3.0470 C   0  0  0  0  0  0  0  0  0  0  0  0
  -36.7430  157.5990    3.2420 O   0  0  0  0  0  0  0  0  0  0  0  0
  -38.8250  157.3200    2.2640 N   0  0  0  0  0  0  0  0  0  0  0  0
  -38.9260  158.4790    1.4680 C   0  0  0  0  0  0  0  0  0  0  0  0
  -39.1780  159.7520    1.9740 C   0  0  0  0  0  0  0  0  0  0  0  0
  -39.2520  160.8540    1.1160 C   0  0  0  0  0  0  0  0  0  0  0  0
  -39.0710  160.6950   -0.2590 C   0  0  0  0  0  0  0  0  0  0  0  0
  -39.1780  162.1050   -1.2480 Cl  0  0  0  0  0  0  0  0  0  0  0  0
  -38.8090  159.4300   -0.7930 C   0  0  0  0  0  0  0  0  0  0  0  0
  -38.6040  159.2260   -2.2690 C   0  0  0  0  0  0  0  0  0  0  0  0
  -39.5570  159.8460   -3.0260 F   0  0  0  0  0  0  0  0  0  0  0  0
  -38.6510  157.9170   -2.6390 F   0  0  0  0  0  0  0  0  0  0  0  0
  -37.4160  159.7140   -2.7190 F   0  0  0  0  0  0  0  0  0  0  0  0
  -38.7370  158.3290    0.0870 C   0  0  0  0  0  0  0  0  0  0  0  0
  -37.6820  153.7500    4.9920 C   0  0  0  0  0  0  0  0  0  0  0  0
  -36.9680  153.0120    5.9410 C   0  0  0  0  0  0  0  0  0  0  0  0
  -35.2860  150.7870    8.5070 C   0  0  0  0  0  0  0  0  0  0  0  0
  -35.3600  149.4060    8.4970 C   0  0  0  0  0  0  0  0  0  0  0  0
  -35.2170  148.6550    7.3850 N   0  0  0  0  0  0  0  0  0  0  0  0
  -34.7919  147.4923    2.6421 H   0  0  0  0  0  0  0  0  0  0  0  0
  -35.7232  148.8693    1.9614 H   0  0  0  0  0  0  0  0  0  0  0  0
  -33.9274  148.9122    1.9614 H   0  0  0  0  0  0  0  0  0  0  0  0
  -35.0170  150.2110    3.8980 H   0  0  0  0  0  0  0  0  0  0  0  0
  -34.7490  151.2107    5.1603 H   0  0  0  0  0  0  0  0  0  0  0  0
  -34.2912  155.0888    6.3363 H   0  0  0  0  0  0  0  0  0  0  0  0
  -35.5714  156.4076    4.6486 H   0  0  0  0  0  0  0  0  0  0  0  0
  -38.6950  155.1220    3.1190 H   0  0  0  0  0  0  0  0  0  0  0  0
  -39.6780  156.8040    2.4140 H   0  0  0  0  0  0  0  0  0  0  0  0
  -39.3198  159.8916    3.0559 H   0  0  0  0  0  0  0  0  0  0  0  0
  -39.4544  161.8537    1.5278 H   0  0  0  0  0  0  0  0  0  0  0  0
  -38.5275  157.3290   -0.3205 H   0  0  0  0  0  0  0  0  0  0  0  0
  -38.6412  153.3667    4.6139 H   0  0  0  0  0  0  0  0  0  0  0  0
  -37.3537  152.0434    6.2917 H   0  0  0  0  0  0  0  0  0  0  0  0
  -35.4188  151.3528    9.4410 H   0  0  0  0  0  0  0  0  0  0  0  0
  -35.5462  148.8900    9.4505 H   0  0  0  0  0  0  0  0  0  0  0  0
  1  2  1  0
  2  3  1  0
  3  4  2  0
  3  5  1  0
  5  6  2  0
  6  7  1  0
  7  8  1  0
  8  9  1  0
  9 10  1  0
 10 11  2  0
 11 12  1  0
 12 13  1  0
 13 14  1  0
 14 15  2  0
 14 16  1  0
 16 17  1  0
 17 18  1  0
 18 19  2  0
 19 20  1  0
 20 21  1  0
 20 22  2  0
 22 23  1  0
 23 24  1  0
 23 25  1  0
 23 26  1  0
 22 27  1  0
 12 28  2  0
 28 29  1  0
  7 30  2  0
 30 31  1  0
 31 32  2  0
 32  5  1  0
 29  9  2  0
 27 17  2  0
  1 33  1  0
  1 34  1  0
  1 35  1  0
  2 36  1  0
  6 37  1  0
 10 38  1  0
 11 39  1  0
 13 40  1  0
 16 41  1  0
 18 42  1  0
 19 43  1  0
 27 44  1  0
 28 45  1  0
 29 46  1  0
 30 47  1  0
 31 48  1  0
M  END
>  <meeko>  (8) 
{"is_sidechain": false}

>  <vina_affinity_kcal_mol>  (8) 
-10.164

>  <pose_rank>  (8) 
8

$$$$

     RDKit          3D

 48 50  0  0  0  0  0  0  0  0999 V2000
  -34.2240  152.4880    5.4490 C   0  0  0  0  0  0  0  0  0  0  0  0
  -34.9560  153.7060    5.2290 N   0  0  0  0  0  0  0  0  0  0  0  0
  -34.4340  154.9470    5.5240 C   0  0  0  0  0  0  0  0  0  0  0  0
  -33.2870  155.1380    5.9090 O   0  0  0  0  0  0  0  0  0  0  0  0
  -35.4030  156.0780    5.3500 C   0  0  0  0  0  0  0  0  0  0  0  0
  -36.6010  155.8610    4.6870 C   0  0  0  0  0  0  0  0  0  0  0  0
  -37.4540  156.9490    4.5340 C   0  0  0  0  0  0  0  0  0  0  0  0
  -38.6870  156.8680    3.9250 O   0  0  0  0  0  0  0  0  0  0  0  0
  -38.9250  157.6980    2.8550 C   0  0  0  0  0  0  0  0  0  0  0  0
  -40.2020  158.2400    2.7380 C   0  0  0  0  0  0  0  0  0  0  0  0
  -40.4980  159.1160    1.6860 C   0  0  0  0  0  0  0  0  0  0  0  0
  -39.5150  159.4680    0.7600 C   0  0  0  0  0  0  0  0  0  0  0  0
  -39.7400  160.3260   -0.3370 N   0  0  0  0  0  0  0  0  0  0  0  0
  -39.0680  160.3350   -1.5510 C   0  0  0  0  0  0  0  0  0  0  0  0
  -38.2380  159.5070   -1.9020 O   0  0  0  0  0  0  0  0  0  0  0  0
  -39.4760  161.4220   -2.3130 N   0  0  0  0  0  0  0  0  0  0  0  0
  -39.1190  161.7160   -3.6440 C   0  0  0  0  0  0  0  0  0  0  0  0
  -39.0020  160.7570   -4.6490 C   0  0  0  0  0  0  0  0  0  0  0  0
  -38.6540  161.1340   -5.9500 C   0  0  0  0  0  0  0  0  0  0  0  0
  -38.4210  162.4750   -6.2620 C   0  0  0  0  0  0  0  0  0  0  0  0
  -37.9960  162.8550   -7.8900 Cl  0  0  0  0  0  0  0  0  0  0  0  0
  -38.5380  163.4580   -5.2750 C   0  0  0  0  0  0  0  0  0  0  0  0
  -38.2990  164.9110   -5.5790 C   0  0  0  0  0  0  0  0  0  0  0  0
  -38.6400  165.7310   -4.5410 F   0  0  0  0  0  0  0  0  0  0  0  0
  -39.0210  165.3610   -6.6410 F   0  0  0  0  0  0  0  0  0  0  0  0
  -36.9960  165.1960   -5.8470 F   0  0  0  0  0  0  0  0  0  0  0  0
  -38.8910  163.0600   -3.9680 C   0  0  0  0  0  0  0  0  0  0  0  0
  -38.2270  158.9300    0.8990 C   0  0  0  0  0  0  0  0  0  0  0  0
  -37.9270  158.0580    1.9500 C   0  0  0  0  0  0  0  0  0  0  0  0
  -37.1100  158.1850    5.0730 C   0  0  0  0  0  0  0  0  0  0  0  0
  -35.8930  158.3020    5.7200 C   0  0  0  0  0  0  0  0  0  0  0  0
  -35.0220  157.2830    5.8690 N   0  0  0  0  0  0  0  0  0  0  0  0
  -34.1191  152.3134    6.5300 H   0  0  0  0  0  0  0  0  0  0  0  0
  -34.7663  151.6468    4.9927 H   0  0  0  0  0  0  0  0  0  0  0  0
  -33.2267  152.5721    4.9927 H   0  0  0  0  0  0  0  0  0  0  0  0
  -35.9510  153.6800    5.0200 H   0  0  0  0  0  0  0  0  0  0  0  0
  -36.8666  154.8673    4.2972 H   0  0  0  0  0  0  0  0  0  0  0  0
  -40.9789  157.9802    3.4721 H   0  0  0  0  0  0  0  0  0  0  0  0
  -41.5127  159.5295    1.5889 H   0  0  0  0  0  0  0  0  0  0  0  0
  -40.5780  160.8870   -0.2930 H   0  0  0  0  0  0  0  0  0  0  0  0
  -39.9450  162.1560   -1.8030 H   0  0  0  0  0  0  0  0  0  0  0  0
  -39.1845  159.6973   -4.4173 H   0  0  0  0  0  0  0  0  0  0  0  0
  -38.5631  160.3678   -6.7340 H   0  0  0  0  0  0  0  0  0  0  0  0
  -38.9897  163.8245   -3.1833 H   0  0  0  0  0  0  0  0  0  0  0  0
  -37.4446  159.1970    0.1734 H   0  0  0  0  0  0  0  0  0  0  0  0
  -36.9086  157.6578    2.0624 H   0  0  0  0  0  0  0  0  0  0  0  0
  -37.7883  159.0467    4.9868 H   0  0  0  0  0  0  0  0  0  0  0  0
  -35.6198  159.2826    6.1370 H   0  0  0  0  0  0  0  0  0  0  0  0
  1  2  1  0
  2  3  1  0
  3  4  2  0
  3  5  1  0
  5  6  2  0
  6  7  1  0
  7  8  1  0
  8  9  1  0
  9 10  1  0
 10 11  2  0
 11 12  1  0
 12 13  1  0
 13 14  1  0
 14 15  2  0
 14 16  1  0
 16 17  1  0
 17 18  1  0
 18 19  2  0
 19 20  1  0
 20 21  1  0
 20 22  2  0
 22 23  1  0
 23 24  1  0
 23 25  1  0
 23 26  1  0
 22 27  1  0
 12 28  2  0
 28 29  1  0
  7 30  2  0
 30 31  1  0
 31 32  2  0
 32  5  1  0
 29  9  2  0
 27 17  2  0
  1 33  1  0
  1 34  1  0
  1 35  1  0
  2 36  1  0
  6 37  1  0
 10 38  1  0
 11 39  1  0
 13 40  1  0
 16 41  1  0
 18 42  1  0
 19 43  1  0
 27 44  1  0
 28 45  1  0
 29 46  1  0
 30 47  1  0
 31 48  1  0
M  END
>  <meeko>  (9) 
{"is_sidechain": false}

>  <vina_affinity_kcal_mol>  (9) 
-10.065

>  <pose_rank>  (9) 
9

$$$$

     RDKit          3D

 48 50  0  0  0  0  0  0  0  0999 V2000
  -34.5010  148.7030    6.2600 C   0  0  0  0  0  0  0  0  0  0  0  0
  -34.3260  150.1300    6.2970 N   0  0  0  0  0  0  0  0  0  0  0  0
  -35.3890  151.0070    6.3270 C   0  0  0  0  0  0  0  0  0  0  0  0
  -36.5620  150.6640    6.4160 O   0  0  0  0  0  0  0  0  0  0  0  0
  -34.9980  152.4500    6.2250 C   0  0  0  0  0  0  0  0  0  0  0  0
  -35.9120  153.4360    6.5620 C   0  0  0  0  0  0  0  0  0  0  0  0
  -35.5050  154.7600    6.4280 C   0  0  0  0  0  0  0  0  0  0  0  0
  -36.2990  155.8360    6.7570 O   0  0  0  0  0  0  0  0  0  0  0  0
  -36.8500  156.5610    5.7270 C   0  0  0  0  0  0  0  0  0  0  0  0
  -37.6550  155.8740    4.8220 C   0  0  0  0  0  0  0  0  0  0  0  0
  -38.2690  156.5610    3.7680 C   0  0  0  0  0  0  0  0  0  0  0  0
  -38.0970  157.9390    3.6250 C   0  0  0  0  0  0  0  0  0  0  0  0
  -38.6630  158.6980    2.5810 N   0  0  0  0  0  0  0  0  0  0  0  0
  -38.3190  158.6710    1.2370 C   0  0  0  0  0  0  0  0  0  0  0  0
  -37.5310  157.8850    0.7280 O   0  0  0  0  0  0  0  0  0  0  0  0
  -38.9990  159.6680    0.5500 N   0  0  0  0  0  0  0  0  0  0  0  0
  -39.0120  159.8940   -0.8410 C   0  0  0  0  0  0  0  0  0  0  0  0
  -39.0660  158.8780   -1.7930 C   0  0  0  0  0  0  0  0  0  0  0  0
  -39.0870  159.1870   -3.1580 C   0  0  0  0  0  0  0  0  0  0  0  0
  -39.0580  160.5160   -3.5840 C   0  0  0  0  0  0  0  0  0  0  0  0
  -39.0870  160.8100   -5.2840 Cl  0  0  0  0  0  0  0  0  0  0  0  0
  -39.0120  161.5540   -2.6500 C   0  0  0  0  0  0  0  0  0  0  0  0
  -38.9850  162.9960   -3.0760 C   0  0  0  0  0  0  0  0  0  0  0  0
  -38.8430  163.8550   -2.0240 F   0  0  0  0  0  0  0  0  0  0  0  0
  -40.1260  163.3890   -3.7060 F   0  0  0  0  0  0  0  0  0  0  0  0
  -37.9560  163.2880   -3.9180 F   0  0  0  0  0  0  0  0  0  0  0  0
  -38.9920  161.2250   -1.2780 C   0  0  0  0  0  0  0  0  0  0  0  0
  -37.2980  158.6230    4.5540 C   0  0  0  0  0  0  0  0  0  0  0  0
  -36.6870  157.9400    5.6090 C   0  0  0  0  0  0  0  0  0  0  0  0
  -34.2110  155.0510    6.0080 C   0  0  0  0  0  0  0  0  0  0  0  0
  -33.3690  153.9980    5.6970 C   0  0  0  0  0  0  0  0  0  0  0  0
  -33.7290  152.7000    5.7850 N   0  0  0  0  0  0  0  0  0  0  0  0
  -34.5489  148.3127    7.2873 H   0  0  0  0  0  0  0  0  0  0  0  0
  -35.4355  148.4617    5.7322 H   0  0  0  0  0  0  0  0  0  0  0  0
  -33.6525  148.2431    5.7322 H   0  0  0  0  0  0  0  0  0  0  0  0
  -33.4140  150.5420    6.1160 H   0  0  0  0  0  0  0  0  0  0  0  0
  -36.9201  153.1818    6.9215 H   0  0  0  0  0  0  0  0  0  0  0  0
  -37.8086  154.7907    4.9353 H   0  0  0  0  0  0  0  0  0  0  0  0
  -38.8916  156.0109    3.0471 H   0  0  0  0  0  0  0  0  0  0  0  0
  -39.5110  159.1970    2.8080 H   0  0  0  0  0  0  0  0  0  0  0  0
  -39.3900  160.4000    1.1260 H   0  0  0  0  0  0  0  0  0  0  0  0
  -39.0923  157.8269   -1.4699 H   0  0  0  0  0  0  0  0  0  0  0  0
  -39.1267  158.3765   -3.9006 H   0  0  0  0  0  0  0  0  0  0  0  0
  -38.9599  162.0337   -0.5330 H   0  0  0  0  0  0  0  0  0  0  0  0
  -37.1511  159.7082    4.4507 H   0  0  0  0  0  0  0  0  0  0  0  0
  -36.0796  158.4889    6.3437 H   0  0  0  0  0  0  0  0  0  0  0  0
  -33.8659  156.0922    5.9252 H   0  0  0  0  0  0  0  0  0  0  0  0
  -32.3487  154.2318    5.3590 H   0  0  0  0  0  0  0  0  0  0  0  0
  1  2  1  0
  2  3  1  0
  3  4  2  0
  3  5  1  0
  5  6  2  0
  6  7  1  0
  7  8  1  0
  8  9  1  0
  9 10  1  0
 10 11  2  0
 11 12  1  0
 12 13  1  0
 13 14  1  0
 14 15  2  0
 14 16  1  0
 16 17  1  0
 17 18  1  0
 18 19  2  0
 19 20  1  0
 20 21  1  0
 20 22  2  0
 22 23  1  0
 23 24  1  0
 23 25  1  0
 23 26  1  0
 22 27  1  0
 12 28  2  0
 28 29  1  0
  7 30  2  0
 30 31  1  0
 31 32  2  0
 32  5  1  0
 29  9  2  0
 27 17  2  0
  1 33  1  0
  1 34  1  0
  1 35  1  0
  2 36  1  0
  6 37  1  0
 10 38  1  0
 11 39  1  0
 13 40  1  0
 16 41  1  0
 18 42  1  0
 19 43  1  0
 27 44  1  0
 28 45  1  0
 29 46  1  0
 30 47  1  0
 31 48  1  0
M  END
>  <meeko>  (10) 
{"is_sidechain": false}

>  <vina_affinity_kcal_mol>  (10) 
-9.979

>  <pose_rank>  (10) 
10

$$$$
