
     RDKit          3D

 62 67  0  0  0  0  0  0  0  0999 V2000
    7.7257    0.0541    2.0786 C   0  0  0  0  0  0  0  0  0  0  0  0
    7.4763   -0.1118    0.5859 C   0  0  0  0  0  0  0  0  0  0  0  0
    6.0259    0.1488    0.1775 C   0  0  0  0  0  0  0  0  0  0  0  0
    5.1940   -0.8092    0.8381 O   0  0  0  0  0  0  0  0  0  0  0  0
    3.8487   -0.7388    0.5958 C   0  0  0  0  0  0  0  0  0  0  0  0
    3.0907   -1.7061    1.2564 C   0  0  0  0  0  0  0  0  0  0  0  0
    1.6976   -1.7805    1.1179 C   0  0  0  0  0  0  0  0  0  0  0  0
    1.0735   -0.8542    0.2672 C   0  0  0  0  0  0  0  0  0  0  0  0
    1.8155    0.1502   -0.3625 C   0  0  0  0  0  0  0  0  0  0  0  0
    3.2134    0.2032   -0.2140 C   0  0  0  0  0  0  0  0  0  0  0  0
    1.0120    1.0087   -1.0602 N   0  0  0  0  0  0  0  0  0  0  0  0
   -0.2036    0.5532   -0.8735 C   0  0  0  0  0  0  0  0  0  0  0  0
   -0.2388   -0.6071   -0.1266 N   0  0  0  0  0  0  0  0  0  0  0  0
   -1.4436   -1.3256    0.1260 C   0  0  0  0  0  0  0  0  0  0  0  0
   -1.4245   -2.6454    0.5373 C   0  0  0  0  0  0  0  0  0  0  0  0
   -2.6399   -3.2840    0.7619 C   0  0  0  0  0  0  0  0  0  0  0  0
   -3.8458   -2.6023    0.5686 C   0  0  0  0  0  0  0  0  0  0  0  0
   -5.0690   -3.2520    0.8014 C   0  0  0  0  0  0  0  0  0  0  0  0
   -6.2706   -2.5843    0.6064 C   0  0  0  0  0  0  0  0  0  0  0  0
   -6.2524   -1.2634    0.1787 C   0  0  0  0  0  0  0  0  0  0  0  0
   -5.0380   -0.5907   -0.0605 C   0  0  0  0  0  0  0  0  0  0  0  0
   -5.1738    0.7620   -0.4916 N   0  0  0  0  0  0  0  0  0  0  0  0
   -4.7167    0.9483   -1.8792 C   0  0  0  0  0  0  0  0  0  0  0  0
   -5.1435    2.3387   -2.3505 C   0  0  0  0  0  0  0  0  0  0  0  0
   -4.6500    3.4533   -1.4177 C   0  0  0  0  0  0  0  0  0  0  0  0
   -3.2160    3.6988   -1.6079 N   0  0  0  0  0  0  0  0  0  0  0  0
   -4.9913    3.1332    0.0452 C   0  0  0  0  0  0  0  0  0  0  0  0
   -4.5714    1.7187    0.4496 C   0  0  0  0  0  0  0  0  0  0  0  0
   -3.8022   -1.2606    0.1296 C   0  0  0  0  0  0  0  0  0  0  0  0
   -2.6069   -0.6566   -0.0956 N   0  0  0  0  0  0  0  0  0  0  0  0
    8.4888    0.6268   -0.3080 C   0  0  0  0  0  0  0  0  0  0  0  0
    8.7852   -0.5883   -1.0380 O   0  0  0  0  0  0  0  0  0  0  0  0
    8.0804   -1.3781   -0.0472 C   0  0  0  0  0  0  0  0  0  0  0  0
    7.1394   -0.6650    2.6603 H   0  0  0  0  0  0  0  0  0  0  0  0
    8.7802   -0.1038    2.3307 H   0  0  0  0  0  0  0  0  0  0  0  0
    7.4529    1.0615    2.4106 H   0  0  0  0  0  0  0  0  0  0  0  0
    5.7395    1.1641    0.4792 H   0  0  0  0  0  0  0  0  0  0  0  0
    5.9111    0.0483   -0.9095 H   0  0  0  0  0  0  0  0  0  0  0  0
    3.5947   -2.4194    1.9069 H   0  0  0  0  0  0  0  0  0  0  0  0
    1.1515   -2.5224    1.6873 H   0  0  0  0  0  0  0  0  0  0  0  0
    3.7440    0.9924   -0.7302 H   0  0  0  0  0  0  0  0  0  0  0  0
   -1.1022    0.9930   -1.2849 H   0  0  0  0  0  0  0  0  0  0  0  0
   -0.5163   -3.2220    0.6388 H   0  0  0  0  0  0  0  0  0  0  0  0
   -2.6380   -4.3252    1.0780 H   0  0  0  0  0  0  0  0  0  0  0  0
   -5.0924   -4.2868    1.1366 H   0  0  0  0  0  0  0  0  0  0  0  0
   -7.2170   -3.0868    0.7859 H   0  0  0  0  0  0  0  0  0  0  0  0
   -7.1905   -0.7341    0.0254 H   0  0  0  0  0  0  0  0  0  0  0  0
   -5.1808    0.2015   -2.5359 H   0  0  0  0  0  0  0  0  0  0  0  0
   -3.6301    0.8392   -1.9696 H   0  0  0  0  0  0  0  0  0  0  0  0
   -6.2405    2.3778   -2.3869 H   0  0  0  0  0  0  0  0  0  0  0  0
   -4.7933    2.5082   -3.3760 H   0  0  0  0  0  0  0  0  0  0  0  0
   -5.1638    4.3812   -1.6963 H   0  0  0  0  0  0  0  0  0  0  0  0
   -2.6694    2.8936   -1.3076 H   0  0  0  0  0  0  0  0  0  0  0  0
   -2.9178    4.4740   -1.0161 H   0  0  0  0  0  0  0  0  0  0  0  0
   -6.0775    3.2296    0.1761 H   0  0  0  0  0  0  0  0  0  0  0  0
   -4.5315    3.8656    0.7197 H   0  0  0  0  0  0  0  0  0  0  0  0
   -3.4782    1.6501    0.4654 H   0  0  0  0  0  0  0  0  0  0  0  0
   -4.9312    1.5269    1.4684 H   0  0  0  0  0  0  0  0  0  0  0  0
    8.0814    1.4024   -0.9636 H   0  0  0  0  0  0  0  0  0  0  0  0
    9.3864    1.0115    0.1875 H   0  0  0  0  0  0  0  0  0  0  0  0
    7.3754   -2.0725   -0.5139 H   0  0  0  0  0  0  0  0  0  0  0  0
    8.7840   -1.9421    0.5740 H   0  0  0  0  0  0  0  0  0  0  0  0
  1  2  1  0
  2  3  1  0
  3  4  1  0
  4  5  1  0
  5  6  2  0
  6  7  1  0
  7  8  2  0
  8  9  1  0
  9 10  2  0
  9 11  1  0
 11 12  2  0
 12 13  1  0
 13 14  1  0
 14 15  1  0
 15 16  2  0
 16 17  1  0
 17 18  2  0
 18 19  1  0
 19 20  2  0
 20 21  1  0
 21 22  1  0
 22 23  1  0
 23 24  1  0
 24 25  1  0
 25 26  1  0
 25 27  1  0
 27 28  1  0
 21 29  2  0
 29 30  1  0
  2 31  1  0
 31 32  1  0
 32 33  1  0
 33  2  1  0
 10  5  1  0
 30 14  2  0
 13  8  1  0
 29 17  1  0
 28 22  1  0
  1 34  1  0
  1 35  1  0
  1 36  1  0
  3 37  1  0
  3 38  1  0
  6 39  1  0
  7 40  1  0
 10 41  1  0
 12 42  1  0
 15 43  1  0
 16 44  1  0
 18 45  1  0
 19 46  1  0
 20 47  1  0
 23 48  1  0
 23 49  1  0
 24 50  1  0
 24 51  1  0
 25 52  1  0
 26 53  1  0
 26 54  1  0
 27 55  1  0
 27 56  1  0
 28 57  1  0
 28 58  1  0
 31 59  1  0
 31 60  1  0
 33 61  1  0
 33 62  1  0
M  END
$$$$
