
     RDKit          3D

 62 67  0  0  0  0  0  0  0  0999 V2000
  -13.7060   -2.0260   -9.7710 C   0  0  0  0  0  0  0  0  0  0  0  0
  -12.2290   -2.2140  -10.0910 C   0  0  0  0  0  0  0  0  0  0  0  0
  -11.4870   -0.9000  -10.3360 C   0  0  0  0  0  0  0  0  0  0  0  0
  -12.4340    0.1700  -10.2760 O   0  0  0  0  0  0  0  0  0  0  0  0
  -12.4020    1.0900  -11.2880 C   0  0  0  0  0  0  0  0  0  0  0  0
  -11.2190    1.0960  -12.0270 C   0  0  0  0  0  0  0  0  0  0  0  0
  -11.0160    1.9770  -13.0980 C   0  0  0  0  0  0  0  0  0  0  0  0
  -12.0430    2.8860  -13.4020 C   0  0  0  0  0  0  0  0  0  0  0  0
  -13.2510    2.8580  -12.7010 C   0  0  0  0  0  0  0  0  0  0  0  0
  -13.4320    1.9690  -11.6260 C   0  0  0  0  0  0  0  0  0  0  0  0
  -14.1550    3.7470  -13.2150 N   0  0  0  0  0  0  0  0  0  0  0  0
  -13.5260    4.3180  -14.2150 C   0  0  0  0  0  0  0  0  0  0  0  0
  -12.2220    3.8880  -14.3520 N   0  0  0  0  0  0  0  0  0  0  0  0
  -11.3250    4.4380  -15.3140 C   0  0  0  0  0  0  0  0  0  0  0  0
  -11.5950    5.6320  -15.9550 C   0  0  0  0  0  0  0  0  0  0  0  0
  -10.6760    6.1060  -16.8850 C   0  0  0  0  0  0  0  0  0  0  0  0
   -9.5120    5.3820  -17.1630 C   0  0  0  0  0  0  0  0  0  0  0  0
   -8.5860    5.8670  -18.1010 C   0  0  0  0  0  0  0  0  0  0  0  0
   -7.4310    5.1510  -18.3870 C   0  0  0  0  0  0  0  0  0  0  0  0
   -7.1980    3.9480  -17.7340 C   0  0  0  0  0  0  0  0  0  0  0  0
   -8.1120    3.4420  -16.7910 C   0  0  0  0  0  0  0  0  0  0  0  0
   -7.7400    2.1970  -16.2000 N   0  0  0  0  0  0  0  0  0  0  0  0
   -6.2890    1.9590  -16.2800 C   0  0  0  0  0  0  0  0  0  0  0  0
   -5.9430    0.7590  -15.3980 C   0  0  0  0  0  0  0  0  0  0  0  0
   -6.7600   -0.4890  -15.7560 C   0  0  0  0  0  0  0  0  0  0  0  0
   -6.2640   -1.1040  -16.9920 N   0  0  0  0  0  0  0  0  0  0  0  0
   -8.2580   -0.1570  -15.8380 C   0  0  0  0  0  0  0  0  0  0  0  0
   -8.5410    1.0700  -16.7060 C   0  0  0  0  0  0  0  0  0  0  0  0
   -9.2990    4.1580  -16.4910 C   0  0  0  0  0  0  0  0  0  0  0  0
  -10.2140    3.7060  -15.5950 N   0  0  0  0  0  0  0  0  0  0  0  0
  -11.4870   -3.1450   -9.1140 C   0  0  0  0  0  0  0  0  0  0  0  0
  -11.0030   -3.9630  -10.2070 O   0  0  0  0  0  0  0  0  0  0  0  0
  -11.9130   -3.3070  -11.1260 C   0  0  0  0  0  0  0  0  0  0  0  0
  -13.8454   -2.0083   -8.6800 H   0  0  0  0  0  0  0  0  0  0  0  0
  -14.0563   -1.0760  -10.2009 H   0  0  0  0  0  0  0  0  0  0  0  0
  -14.2831   -2.8579  -10.2009 H   0  0  0  0  0  0  0  0  0  0  0  0
  -10.7168   -0.7584   -9.5635 H   0  0  0  0  0  0  0  0  0  0  0  0
  -10.9994   -0.9189  -11.3219 H   0  0  0  0  0  0  0  0  0  0  0  0
  -10.4208    0.3874  -11.7610 H   0  0  0  0  0  0  0  0  0  0  0  0
  -10.0835    1.9573  -13.6811 H   0  0  0  0  0  0  0  0  0  0  0  0
  -14.3743    1.9666  -11.0584 H   0  0  0  0  0  0  0  0  0  0  0  0
  -13.9909    5.0636  -14.8768 H   0  0  0  0  0  0  0  0  0  0  0  0
  -12.5146    6.1940  -15.7350 H   0  0  0  0  0  0  0  0  0  0  0  0
  -10.8658    7.0564  -17.4053 H   0  0  0  0  0  0  0  0  0  0  0  0
   -8.7771    6.8215  -18.6132 H   0  0  0  0  0  0  0  0  0  0  0  0
   -6.7083    5.5329  -19.1231 H   0  0  0  0  0  0  0  0  0  0  0  0
   -6.2827    3.3803  -17.9577 H   0  0  0  0  0  0  0  0  0  0  0  0
   -6.0048    1.7478  -17.3215 H   0  0  0  0  0  0  0  0  0  0  0  0
   -5.7423    2.8491  -15.9354 H   0  0  0  0  0  0  0  0  0  0  0  0
   -4.8745    0.5280  -15.5202 H   0  0  0  0  0  0  0  0  0  0  0  0
   -6.1827    1.0283  -14.3587 H   0  0  0  0  0  0  0  0  0  0  0  0
   -6.6336   -1.2294  -14.9523 H   0  0  0  0  0  0  0  0  0  0  0  0
   -5.3600   -0.7140  -17.2510 H   0  0  0  0  0  0  0  0  0  0  0  0
   -6.8940   -0.8840  -17.7630 H   0  0  0  0  0  0  0  0  0  0  0  0
   -8.7876   -1.0210  -16.2657 H   0  0  0  0  0  0  0  0  0  0  0  0
   -8.6060    0.0679  -14.8190 H   0  0  0  0  0  0  0  0  0  0  0  0
   -8.2647    0.8577  -17.7494 H   0  0  0  0  0  0  0  0  0  0  0  0
   -9.6112    1.3209  -16.6653 H   0  0  0  0  0  0  0  0  0  0  0  0
  -10.6882   -2.6460   -8.5457 H   0  0  0  0  0  0  0  0  0  0  0  0
  -12.0369   -3.6140   -8.2848 H   0  0  0  0  0  0  0  0  0  0  0  0
  -11.4268   -2.9281  -12.0371 H   0  0  0  0  0  0  0  0  0  0  0  0
  -12.7345   -3.8800  -11.5808 H   0  0  0  0  0  0  0  0  0  0  0  0
  1  2  1  0
  2  3  1  0
  3  4  1  0
  4  5  1  0
  5  6  2  0
  6  7  1  0
  7  8  2  0
  8  9  1  0
  9 10  2  0
  9 11  1  0
 11 12  2  0
 12 13  1  0
 13 14  1  0
 14 15  1  0
 15 16  2  0
 16 17  1  0
 17 18  2  0
 18 19  1  0
 19 20  2  0
 20 21  1  0
 21 22  1  0
 22 23  1  0
 23 24  1  0
 24 25  1  0
 25 26  1  0
 25 27  1  0
 27 28  1  0
 21 29  2  0
 29 30  1  0
  2 31  1  0
 31 32  1  0
 32 33  1  0
 33  2  1  0
 10  5  1  0
 30 14  2  0
 13  8  1  0
 29 17  1  0
 28 22  1  0
  1 34  1  0
  1 35  1  0
  1 36  1  0
  3 37  1  0
  3 38  1  0
  6 39  1  0
  7 40  1  0
 10 41  1  0
 12 42  1  0
 15 43  1  0
 16 44  1  0
 18 45  1  0
 19 46  1  0
 20 47  1  0
 23 48  1  0
 23 49  1  0
 24 50  1  0
 24 51  1  0
 25 52  1  0
 26 53  1  0
 26 54  1  0
 27 55  1  0
 27 56  1  0
 28 57  1  0
 28 58  1  0
 31 59  1  0
 31 60  1  0
 33 61  1  0
 33 62  1  0
M  END
>  <meeko>  (1) 
{"is_sidechain": false}

>  <vina_affinity_kcal_mol>  (1) 
-10.43

>  <pose_rank>  (1) 
1

$$$$

     RDKit          3D

 62 67  0  0  0  0  0  0  0  0999 V2000
  -12.6450    0.2090   -7.6200 C   0  0  0  0  0  0  0  0  0  0  0  0
  -13.9560    0.0190   -8.3720 C   0  0  0  0  0  0  0  0  0  0  0  0
  -13.7670   -0.2900   -9.8570 C   0  0  0  0  0  0  0  0  0  0  0  0
  -12.4720    0.1690  -10.2510 O   0  0  0  0  0  0  0  0  0  0  0  0
  -12.4160    1.0820  -11.2690 C   0  0  0  0  0  0  0  0  0  0  0  0
  -11.2120    1.0910  -11.9730 C   0  0  0  0  0  0  0  0  0  0  0  0
  -10.9850    1.9650  -13.0450 C   0  0  0  0  0  0  0  0  0  0  0  0
  -12.0090    2.8630  -13.3870 C   0  0  0  0  0  0  0  0  0  0  0  0
  -13.2380    2.8310  -12.7220 C   0  0  0  0  0  0  0  0  0  0  0  0
  -13.4430    1.9490  -11.6450 C   0  0  0  0  0  0  0  0  0  0  0  0
  -14.1320    3.7090  -13.2700 N   0  0  0  0  0  0  0  0  0  0  0  0
  -13.4780    4.2770  -14.2550 C   0  0  0  0  0  0  0  0  0  0  0  0
  -12.1680    3.8570  -14.3500 N   0  0  0  0  0  0  0  0  0  0  0  0
  -11.2470    4.4050  -15.2900 C   0  0  0  0  0  0  0  0  0  0  0  0
  -11.4960    5.6050  -15.9280 C   0  0  0  0  0  0  0  0  0  0  0  0
  -10.5540    6.0780  -16.8360 C   0  0  0  0  0  0  0  0  0  0  0  0
   -9.3890    5.3470  -17.0940 C   0  0  0  0  0  0  0  0  0  0  0  0
   -8.4400    5.8320  -18.0090 C   0  0  0  0  0  0  0  0  0  0  0  0
   -7.2840    5.1100  -18.2760 C   0  0  0  0  0  0  0  0  0  0  0  0
   -7.0740    3.9010  -17.6260 C   0  0  0  0  0  0  0  0  0  0  0  0
   -8.0110    3.3960  -16.7040 C   0  0  0  0  0  0  0  0  0  0  0  0
   -7.6600    2.1450  -16.1140 N   0  0  0  0  0  0  0  0  0  0  0  0
   -6.2080    1.9040  -16.1520 C   0  0  0  0  0  0  0  0  0  0  0  0
   -5.8920    0.6950  -15.2710 C   0  0  0  0  0  0  0  0  0  0  0  0
   -6.7010   -0.5480  -15.6640 C   0  0  0  0  0  0  0  0  0  0  0  0
   -6.1700   -1.1540  -16.8900 N   0  0  0  0  0  0  0  0  0  0  0  0
   -8.1940   -0.2110  -15.7870 C   0  0  0  0  0  0  0  0  0  0  0  0
   -8.4480    1.0250  -16.6530 C   0  0  0  0  0  0  0  0  0  0  0  0
   -9.1990    4.1190  -16.4250 C   0  0  0  0  0  0  0  0  0  0  0  0
  -10.1350    3.6670  -15.5510 N   0  0  0  0  0  0  0  0  0  0  0  0
  -14.9440   -0.9420   -7.6840 C   0  0  0  0  0  0  0  0  0  0  0  0
  -15.9940    0.0540   -7.7230 O   0  0  0  0  0  0  0  0  0  0  0  0
  -15.0360    1.0780   -8.0920 C   0  0  0  0  0  0  0  0  0  0  0  0
  -12.8361    0.1813   -6.5371 H   0  0  0  0  0  0  0  0  0  0  0  0
  -11.9473   -0.5974   -7.8899 H   0  0  0  0  0  0  0  0  0  0  0  0
  -12.2049    1.1803   -7.8899 H   0  0  0  0  0  0  0  0  0  0  0  0
  -13.8435   -1.3746  -10.0236 H   0  0  0  0  0  0  0  0  0  0  0  0
  -14.5439    0.2143  -10.4503 H   0  0  0  0  0  0  0  0  0  0  0  0
  -10.4165    0.3910  -11.6780 H   0  0  0  0  0  0  0  0  0  0  0  0
  -10.0356    1.9480  -13.6003 H   0  0  0  0  0  0  0  0  0  0  0  0
  -14.4017    1.9429  -11.1056 H   0  0  0  0  0  0  0  0  0  0  0  0
  -13.9288    5.0137  -14.9362 H   0  0  0  0  0  0  0  0  0  0  0  0
  -12.4160    6.1722  -15.7231 H   0  0  0  0  0  0  0  0  0  0  0  0
  -10.7261    7.0328  -17.3545 H   0  0  0  0  0  0  0  0  0  0  0  0
   -8.6138    6.7914  -18.5182 H   0  0  0  0  0  0  0  0  0  0  0  0
   -6.5432    5.4915  -18.9941 H   0  0  0  0  0  0  0  0  0  0  0  0
   -6.1590    3.3273  -17.8351 H   0  0  0  0  0  0  0  0  0  0  0  0
   -5.8927    1.7016  -17.1862 H   0  0  0  0  0  0  0  0  0  0  0  0
   -5.6699    2.7895  -15.7828 H   0  0  0  0  0  0  0  0  0  0  0  0
   -4.8209    0.4621  -15.3632 H   0  0  0  0  0  0  0  0  0  0  0  0
   -6.1625    0.9559  -14.2372 H   0  0  0  0  0  0  0  0  0  0  0  0
   -6.6002   -1.2960  -14.8638 H   0  0  0  0  0  0  0  0  0  0  0  0
   -5.1740   -0.9610  -16.9850 H   0  0  0  0  0  0  0  0  0  0  0  0
   -6.6140   -0.7300  -17.7040 H   0  0  0  0  0  0  0  0  0  0  0  0
   -8.7132   -1.0698  -16.2375 H   0  0  0  0  0  0  0  0  0  0  0  0
   -8.5712    0.0063  -14.7768 H   0  0  0  0  0  0  0  0  0  0  0  0
   -8.1413    0.8209  -17.6895 H   0  0  0  0  0  0  0  0  0  0  0  0
   -9.5183    1.2785  -16.6419 H   0  0  0  0  0  0  0  0  0  0  0  0
  -15.1668   -1.8448   -8.2716 H   0  0  0  0  0  0  0  0  0  0  0  0
  -14.6717   -1.4089   -6.7259 H   0  0  0  0  0  0  0  0  0  0  0  0
  -15.3277    1.6595   -8.9790 H   0  0  0  0  0  0  0  0  0  0  0  0
  -14.8232    1.9013   -7.3943 H   0  0  0  0  0  0  0  0  0  0  0  0
  1  2  1  0
  2  3  1  0
  3  4  1  0
  4  5  1  0
  5  6  2  0
  6  7  1  0
  7  8  2  0
  8  9  1  0
  9 10  2  0
  9 11  1  0
 11 12  2  0
 12 13  1  0
 13 14  1  0
 14 15  1  0
 15 16  2  0
 16 17  1  0
 17 18  2  0
 18 19  1  0
 19 20  2  0
 20 21  1  0
 21 22  1  0
 22 23  1  0
 23 24  1  0
 24 25  1  0
 25 26  1  0
 25 27  1  0
 27 28  1  0
 21 29  2  0
 29 30  1  0
  2 31  1  0
 31 32  1  0
 32 33  1  0
 33  2  1  0
 10  5  1  0
 30 14  2  0
 13  8  1  0
 29 17  1  0
 28 22  1  0
  1 34  1  0
  1 35  1  0
  1 36  1  0
  3 37  1  0
  3 38  1  0
  6 39  1  0
  7 40  1  0
 10 41  1  0
 12 42  1  0
 15 43  1  0
 16 44  1  0
 18 45  1  0
 19 46  1  0
 20 47  1  0
 23 48  1  0
 23 49  1  0
 24 50  1  0
 24 51  1  0
 25 52  1  0
 26 53  1  0
 26 54  1  0
 27 55  1  0
 27 56  1  0
 28 57  1  0
 28 58  1  0
 31 59  1  0
 31 60  1  0
 33 61  1  0
 33 62  1  0
M  END
>  <meeko>  (2) 
{"is_sidechain": false}

>  <vina_affinity_kcal_mol>  (2) 
-10.379

>  <pose_rank>  (2) 
2

$$$$

     RDKit          3D

 62 67  0  0  0  0  0  0  0  0999 V2000
  -12.7920   -1.3570   -7.9290 C   0  0  0  0  0  0  0  0  0  0  0  0
  -13.9650   -1.3210   -8.9000 C   0  0  0  0  0  0  0  0  0  0  0  0
  -14.0320   -0.0360   -9.7260 C   0  0  0  0  0  0  0  0  0  0  0  0
  -12.7140    0.2700  -10.1900 O   0  0  0  0  0  0  0  0  0  0  0  0
  -12.6070    1.1620  -11.2220 C   0  0  0  0  0  0  0  0  0  0  0  0
  -11.3810    1.1320  -11.8870 C   0  0  0  0  0  0  0  0  0  0  0  0
  -11.1010    1.9820  -12.9670 C   0  0  0  0  0  0  0  0  0  0  0  0
  -12.0940    2.8940  -13.3570 C   0  0  0  0  0  0  0  0  0  0  0  0
  -13.3440    2.9010  -12.7310 C   0  0  0  0  0  0  0  0  0  0  0  0
  -13.6020    2.0440  -11.6450 C   0  0  0  0  0  0  0  0  0  0  0  0
  -14.2010    3.7870  -13.3220 N   0  0  0  0  0  0  0  0  0  0  0  0
  -13.5040    4.3230  -14.2960 C   0  0  0  0  0  0  0  0  0  0  0  0
  -12.2010    3.8730  -14.3420 N   0  0  0  0  0  0  0  0  0  0  0  0
  -11.2390    4.3850  -15.2620 C   0  0  0  0  0  0  0  0  0  0  0  0
  -11.4400    5.5800  -15.9260 C   0  0  0  0  0  0  0  0  0  0  0  0
  -10.4600    6.0160  -16.8120 C   0  0  0  0  0  0  0  0  0  0  0  0
   -9.3060    5.2540  -17.0230 C   0  0  0  0  0  0  0  0  0  0  0  0
   -8.3190    5.7010  -17.9160 C   0  0  0  0  0  0  0  0  0  0  0  0
   -7.1730    4.9470  -18.1360 C   0  0  0  0  0  0  0  0  0  0  0  0
   -7.0120    3.7440  -17.4620 C   0  0  0  0  0  0  0  0  0  0  0  0
   -7.9880    3.2760  -16.5620 C   0  0  0  0  0  0  0  0  0  0  0  0
   -7.6850    2.0270  -15.9410 N   0  0  0  0  0  0  0  0  0  0  0  0
   -6.2390    1.7520  -15.9310 C   0  0  0  0  0  0  0  0  0  0  0  0
   -5.9780    0.5500  -15.0230 C   0  0  0  0  0  0  0  0  0  0  0  0
   -6.8050   -0.6800  -15.4210 C   0  0  0  0  0  0  0  0  0  0  0  0
   -6.2510   -1.3170  -16.6210 N   0  0  0  0  0  0  0  0  0  0  0  0
   -8.2850   -0.3100  -15.5960 C   0  0  0  0  0  0  0  0  0  0  0  0
   -8.4820    0.9170  -16.4870 C   0  0  0  0  0  0  0  0  0  0  0  0
   -9.1660    4.0320  -16.3300 C   0  0  0  0  0  0  0  0  0  0  0  0
  -10.1380    3.6170  -15.4780 N   0  0  0  0  0  0  0  0  0  0  0  0
  -14.1110   -2.5900   -9.7590 C   0  0  0  0  0  0  0  0  0  0  0  0
  -15.4910   -2.7500   -9.3520 O   0  0  0  0  0  0  0  0  0  0  0  0
  -15.3200   -1.7520   -8.3140 C   0  0  0  0  0  0  0  0  0  0  0  0
  -13.1704   -1.3454   -6.8962 H   0  0  0  0  0  0  0  0  0  0  0  0
  -12.2068   -2.2735   -8.0948 H   0  0  0  0  0  0  0  0  0  0  0  0
  -12.1517   -0.4781   -8.0948 H   0  0  0  0  0  0  0  0  0  0  0  0
  -14.7042   -0.1806  -10.5846 H   0  0  0  0  0  0  0  0  0  0  0  0
  -14.4180    0.7900   -9.1105 H   0  0  0  0  0  0  0  0  0  0  0  0
  -10.6109    0.4205  -11.5544 H   0  0  0  0  0  0  0  0  0  0  0  0
  -10.1350    1.9354  -13.4911 H   0  0  0  0  0  0  0  0  0  0  0  0
  -14.5766    2.0692  -11.1356 H   0  0  0  0  0  0  0  0  0  0  0  0
  -13.9169    5.0567  -15.0039 H   0  0  0  0  0  0  0  0  0  0  0  0
  -12.3520    6.1717  -15.7583 H   0  0  0  0  0  0  0  0  0  0  0  0
  -10.5934    6.9661  -17.3501 H   0  0  0  0  0  0  0  0  0  0  0  0
   -8.4542    6.6556  -18.4456 H   0  0  0  0  0  0  0  0  0  0  0  0
   -6.4016    5.2994  -18.8366 H   0  0  0  0  0  0  0  0  0  0  0  0
   -6.1052    3.1456  -17.6344 H   0  0  0  0  0  0  0  0  0  0  0  0
   -5.8975    1.5264  -16.9520 H   0  0  0  0  0  0  0  0  0  0  0  0
   -5.6917    2.6305  -15.5586 H   0  0  0  0  0  0  0  0  0  0  0  0
   -4.9106    0.2905  -15.0800 H   0  0  0  0  0  0  0  0  0  0  0  0
   -6.2723    0.8335  -14.0017 H   0  0  0  0  0  0  0  0  0  0  0  0
   -6.7476   -1.4169  -14.6063 H   0  0  0  0  0  0  0  0  0  0  0  0
   -5.6480   -2.0990  -16.3680 H   0  0  0  0  0  0  0  0  0  0  0  0
   -5.6550   -0.6560  -17.1180 H   0  0  0  0  0  0  0  0  0  0  0  0
   -8.8103   -1.1632  -16.0499 H   0  0  0  0  0  0  0  0  0  0  0  0
   -8.6883   -0.0683  -14.6015 H   0  0  0  0  0  0  0  0  0  0  0  0
   -8.1482    0.6894  -17.5101 H   0  0  0  0  0  0  0  0  0  0  0  0
   -9.5458    1.1956  -16.5128 H   0  0  0  0  0  0  0  0  0  0  0  0
  -13.9843   -2.4127  -10.8372 H   0  0  0  0  0  0  0  0  0  0  0  0
  -13.4042   -3.4221   -9.6249 H   0  0  0  0  0  0  0  0  0  0  0  0
  -16.0827   -0.9596   -8.3305 H   0  0  0  0  0  0  0  0  0  0  0  0
  -15.3863   -2.0490   -7.2569 H   0  0  0  0  0  0  0  0  0  0  0  0
  1  2  1  0
  2  3  1  0
  3  4  1  0
  4  5  1  0
  5  6  2  0
  6  7  1  0
  7  8  2  0
  8  9  1  0
  9 10  2  0
  9 11  1  0
 11 12  2  0
 12 13  1  0
 13 14  1  0
 14 15  1  0
 15 16  2  0
 16 17  1  0
 17 18  2  0
 18 19  1  0
 19 20  2  0
 20 21  1  0
 21 22  1  0
 22 23  1  0
 23 24  1  0
 24 25  1  0
 25 26  1  0
 25 27  1  0
 27 28  1  0
 21 29  2  0
 29 30  1  0
  2 31  1  0
 31 32  1  0
 32 33  1  0
 33  2  1  0
 10  5  1  0
 30 14  2  0
 13  8  1  0
 29 17  1  0
 28 22  1  0
  1 34  1  0
  1 35  1  0
  1 36  1  0
  3 37  1  0
  3 38  1  0
  6 39  1  0
  7 40  1  0
 10 41  1  0
 12 42  1  0
 15 43  1  0
 16 44  1  0
 18 45  1  0
 19 46  1  0
 20 47  1  0
 23 48  1  0
 23 49  1  0
 24 50  1  0
 24 51  1  0
 25 52  1  0
 26 53  1  0
 26 54  1  0
 27 55  1  0
 27 56  1  0
 28 57  1  0
 28 58  1  0
 31 59  1  0
 31 60  1  0
 33 61  1  0
 33 62  1  0
M  END
>  <meeko>  (3) 
{"is_sidechain": false}

>  <vina_affinity_kcal_mol>  (3) 
-10.327

>  <pose_rank>  (3) 
3

$$$$

     RDKit          3D

 62 67  0  0  0  0  0  0  0  0999 V2000
   -8.3300    6.0200  -19.2760 C   0  0  0  0  0  0  0  0  0  0  0  0
   -9.6900    6.6780  -19.4700 C   0  0  0  0  0  0  0  0  0  0  0  0
  -10.7950    6.0550  -18.6160 C   0  0  0  0  0  0  0  0  0  0  0  0
  -10.5790    6.4350  -17.2550 O   0  0  0  0  0  0  0  0  0  0  0  0
  -11.1310    5.6380  -16.2890 C   0  0  0  0  0  0  0  0  0  0  0  0
  -10.2300    4.7740  -15.6660 C   0  0  0  0  0  0  0  0  0  0  0  0
  -10.6280    3.8870  -14.6570 C   0  0  0  0  0  0  0  0  0  0  0  0
  -11.9850    3.8720  -14.2960 C   0  0  0  0  0  0  0  0  0  0  0  0
  -12.8890    4.7650  -14.8770 C   0  0  0  0  0  0  0  0  0  0  0  0
  -12.4690    5.6440  -15.8920 C   0  0  0  0  0  0  0  0  0  0  0  0
  -14.1320    4.6620  -14.3170 N   0  0  0  0  0  0  0  0  0  0  0  0
  -14.0100    3.7250  -13.4060 C   0  0  0  0  0  0  0  0  0  0  0  0
  -12.7520    3.1600  -13.3760 N   0  0  0  0  0  0  0  0  0  0  0  0
  -12.4180    2.0650  -12.5260 C   0  0  0  0  0  0  0  0  0  0  0  0
  -13.2160    1.7130  -11.4550 C   0  0  0  0  0  0  0  0  0  0  0  0
  -12.8270    0.6350  -10.6670 C   0  0  0  0  0  0  0  0  0  0  0  0
  -11.6510   -0.0660  -10.9560 C   0  0  0  0  0  0  0  0  0  0  0  0
  -11.2650   -1.1550  -10.1590 C   0  0  0  0  0  0  0  0  0  0  0  0
  -10.0960   -1.8530  -10.4350 C   0  0  0  0  0  0  0  0  0  0  0  0
   -9.3110   -1.4620  -11.5110 C   0  0  0  0  0  0  0  0  0  0  0  0
   -9.6780   -0.3730  -12.3250 C   0  0  0  0  0  0  0  0  0  0  0  0
   -8.7760   -0.0890  -13.3940 N   0  0  0  0  0  0  0  0  0  0  0  0
   -9.3970   -0.3010  -14.7120 C   0  0  0  0  0  0  0  0  0  0  0  0
   -8.4730    0.2770  -15.7840 C   0  0  0  0  0  0  0  0  0  0  0  0
   -7.0520   -0.2960  -15.7090 C   0  0  0  0  0  0  0  0  0  0  0  0
   -7.0090   -1.6630  -16.2410 N   0  0  0  0  0  0  0  0  0  0  0  0
   -6.5070   -0.2180  -14.2750 C   0  0  0  0  0  0  0  0  0  0  0  0
   -7.4860   -0.7810  -13.2430 C   0  0  0  0  0  0  0  0  0  0  0  0
  -10.8660    0.3530  -12.0520 C   0  0  0  0  0  0  0  0  0  0  0  0
  -11.2560    1.4150  -12.8030 N   0  0  0  0  0  0  0  0  0  0  0  0
   -9.6650    8.2150  -19.3840 C   0  0  0  0  0  0  0  0  0  0  0  0
  -10.3190    8.3340  -20.6700 O   0  0  0  0  0  0  0  0  0  0  0  0
  -10.1010    6.9240  -20.9330 C   0  0  0  0  0  0  0  0  0  0  0  0
   -8.1215    5.9191  -18.2007 H   0  0  0  0  0  0  0  0  0  0  0  0
   -8.3343    5.0244  -19.7436 H   0  0  0  0  0  0  0  0  0  0  0  0
   -7.5520    6.6413  -19.7436 H   0  0  0  0  0  0  0  0  0  0  0  0
  -11.7762    6.4206  -18.9530 H   0  0  0  0  0  0  0  0  0  0  0  0
  -10.7751    4.9593  -18.7111 H   0  0  0  0  0  0  0  0  0  0  0  0
   -9.1748    4.7896  -15.9764 H   0  0  0  0  0  0  0  0  0  0  0  0
   -9.9015    3.2243  -14.1640 H   0  0  0  0  0  0  0  0  0  0  0  0
  -13.1871    6.3283  -16.3674 H   0  0  0  0  0  0  0  0  0  0  0  0
  -14.8272    3.4214  -12.7352 H   0  0  0  0  0  0  0  0  0  0  0  0
  -14.1367    2.2716  -11.2308 H   0  0  0  0  0  0  0  0  0  0  0  0
  -13.4478    0.3315   -9.8111 H   0  0  0  0  0  0  0  0  0  0  0  0
  -11.8934   -1.4583   -9.3087 H   0  0  0  0  0  0  0  0  0  0  0  0
   -9.7959   -2.7056   -9.8081 H   0  0  0  0  0  0  0  0  0  0  0  0
   -8.3850   -2.0131  -11.7320 H   0  0  0  0  0  0  0  0  0  0  0  0
   -9.5388   -1.3778  -14.8861 H   0  0  0  0  0  0  0  0  0  0  0  0
  -10.3766    0.1978  -14.7509 H   0  0  0  0  0  0  0  0  0  0  0  0
   -8.8941    0.0465  -16.7737 H   0  0  0  0  0  0  0  0  0  0  0  0
   -8.4043    1.3618  -15.6151 H   0  0  0  0  0  0  0  0  0  0  0  0
   -6.3949    0.3187  -16.3418 H   0  0  0  0  0  0  0  0  0  0  0  0
   -6.1870   -2.1570  -15.9000 H   0  0  0  0  0  0  0  0  0  0  0  0
   -6.9160   -1.6350  -17.2560 H   0  0  0  0  0  0  0  0  0  0  0  0
   -5.5703   -0.7923  -14.2222 H   0  0  0  0  0  0  0  0  0  0  0  0
   -6.3454    0.8437  -14.0369 H   0  0  0  0  0  0  0  0  0  0  0  0
   -7.6220   -1.8596  -13.4110 H   0  0  0  0  0  0  0  0  0  0  0  0
   -7.0926   -0.6256  -12.2276 H   0  0  0  0  0  0  0  0  0  0  0  0
  -10.2530    8.6220  -18.5482 H   0  0  0  0  0  0  0  0  0  0  0  0
   -8.7114    8.7345  -19.2087 H   0  0  0  0  0  0  0  0  0  0  0  0
  -11.0098    6.3832  -21.2356 H   0  0  0  0  0  0  0  0  0  0  0  0
   -9.4267    6.6194  -21.7470 H   0  0  0  0  0  0  0  0  0  0  0  0
  1  2  1  0
  2  3  1  0
  3  4  1  0
  4  5  1  0
  5  6  2  0
  6  7  1  0
  7  8  2  0
  8  9  1  0
  9 10  2  0
  9 11  1  0
 11 12  2  0
 12 13  1  0
 13 14  1  0
 14 15  1  0
 15 16  2  0
 16 17  1  0
 17 18  2  0
 18 19  1  0
 19 20  2  0
 20 21  1  0
 21 22  1  0
 22 23  1  0
 23 24  1  0
 24 25  1  0
 25 26  1  0
 25 27  1  0
 27 28  1  0
 21 29  2  0
 29 30  1  0
  2 31  1  0
 31 32  1  0
 32 33  1  0
 33  2  1  0
 10  5  1  0
 30 14  2  0
 13  8  1  0
 29 17  1  0
 28 22  1  0
  1 34  1  0
  1 35  1  0
  1 36  1  0
  3 37  1  0
  3 38  1  0
  6 39  1  0
  7 40  1  0
 10 41  1  0
 12 42  1  0
 15 43  1  0
 16 44  1  0
 18 45  1  0
 19 46  1  0
 20 47  1  0
 23 48  1  0
 23 49  1  0
 24 50  1  0
 24 51  1  0
 25 52  1  0
 26 53  1  0
 26 54  1  0
 27 55  1  0
 27 56  1  0
 28 57  1  0
 28 58  1  0
 31 59  1  0
 31 60  1  0
 33 61  1  0
 33 62  1  0
M  END
>  <meeko>  (4) 
{"is_sidechain": false}

>  <vina_affinity_kcal_mol>  (4) 
-9.695

>  <pose_rank>  (4) 
4

$$$$

     RDKit          3D

 62 67  0  0  0  0  0  0  0  0999 V2000
  -16.7210   -2.1930   -7.6380 C   0  0  0  0  0  0  0  0  0  0  0  0
  -16.4890   -0.8340   -6.9910 C   0  0  0  0  0  0  0  0  0  0  0  0
  -15.3570   -0.0360   -7.6390 C   0  0  0  0  0  0  0  0  0  0  0  0
  -14.6250   -0.9130   -8.4990 O   0  0  0  0  0  0  0  0  0  0  0  0
  -13.8530   -0.3330   -9.4700 C   0  0  0  0  0  0  0  0  0  0  0  0
  -14.3510    0.8730   -9.9610 C   0  0  0  0  0  0  0  0  0  0  0  0
  -13.6870    1.5990  -10.9600 C   0  0  0  0  0  0  0  0  0  0  0  0
  -12.4990    1.0620  -11.4800 C   0  0  0  0  0  0  0  0  0  0  0  0
  -11.9640   -0.1210  -10.9630 C   0  0  0  0  0  0  0  0  0  0  0  0
  -12.6490   -0.8360   -9.9640 C   0  0  0  0  0  0  0  0  0  0  0  0
  -10.7540   -0.4180  -11.5280 N   0  0  0  0  0  0  0  0  0  0  0  0
  -10.5380    0.5560  -12.3800 C   0  0  0  0  0  0  0  0  0  0  0  0
  -11.5780    1.4590  -12.4470 N   0  0  0  0  0  0  0  0  0  0  0  0
  -11.5980    2.5480  -13.3680 C   0  0  0  0  0  0  0  0  0  0  0  0
  -12.6460    3.4470  -13.4000 C   0  0  0  0  0  0  0  0  0  0  0  0
  -12.5980    4.4830  -14.3270 C   0  0  0  0  0  0  0  0  0  0  0  0
  -11.5150    4.6000  -15.2050 C   0  0  0  0  0  0  0  0  0  0  0  0
  -11.4720    5.6500  -16.1360 C   0  0  0  0  0  0  0  0  0  0  0  0
  -10.4030    5.7690  -17.0150 C   0  0  0  0  0  0  0  0  0  0  0  0
   -9.3750    4.8380  -16.9640 C   0  0  0  0  0  0  0  0  0  0  0  0
   -9.3970    3.7770  -16.0390 C   0  0  0  0  0  0  0  0  0  0  0  0
   -8.2720    2.9020  -16.1000 N   0  0  0  0  0  0  0  0  0  0  0  0
   -7.0780    3.5720  -16.6410 C   0  0  0  0  0  0  0  0  0  0  0  0
   -5.8680    2.6640  -16.4230 C   0  0  0  0  0  0  0  0  0  0  0  0
   -6.0690    1.2630  -17.0130 C   0  0  0  0  0  0  0  0  0  0  0  0
   -5.9350    1.2860  -18.4740 N   0  0  0  0  0  0  0  0  0  0  0  0
   -7.4130    0.6680  -16.5660 C   0  0  0  0  0  0  0  0  0  0  0  0
   -8.5810    1.6330  -16.7790 C   0  0  0  0  0  0  0  0  0  0  0  0
  -10.4830    3.6390  -15.1370 C   0  0  0  0  0  0  0  0  0  0  0  0
  -10.5520    2.6280  -14.2340 N   0  0  0  0  0  0  0  0  0  0  0  0
  -17.7690   -0.0010   -6.7970 C   0  0  0  0  0  0  0  0  0  0  0  0
  -17.4840    0.1750   -5.3880 O   0  0  0  0  0  0  0  0  0  0  0  0
  -16.4450   -0.8350   -5.4520 C   0  0  0  0  0  0  0  0  0  0  0  0
  -16.8510   -2.9545   -6.8549 H   0  0  0  0  0  0  0  0  0  0  0  0
  -17.6251   -2.1519   -8.2632 H   0  0  0  0  0  0  0  0  0  0  0  0
  -15.8544   -2.4542   -8.2632 H   0  0  0  0  0  0  0  0  0  0  0  0
  -15.7760    0.7954   -8.2249 H   0  0  0  0  0  0  0  0  0  0  0  0
  -14.6933    0.3773   -6.8652 H   0  0  0  0  0  0  0  0  0  0  0  0
  -15.2933    1.2669   -9.5524 H   0  0  0  0  0  0  0  0  0  0  0  0
  -14.0841    2.5580  -11.3243 H   0  0  0  0  0  0  0  0  0  0  0  0
  -12.2402   -1.7809   -9.5767 H   0  0  0  0  0  0  0  0  0  0  0  0
   -9.6203    0.6434  -12.9801 H   0  0  0  0  0  0  0  0  0  0  0  0
  -13.4968    3.3463  -12.7101 H   0  0  0  0  0  0  0  0  0  0  0  0
  -13.4174    5.2156  -14.3701 H   0  0  0  0  0  0  0  0  0  0  0  0
  -12.2908    6.3838  -16.1696 H   0  0  0  0  0  0  0  0  0  0  0  0
  -10.3716    6.5924  -17.7437 H   0  0  0  0  0  0  0  0  0  0  0  0
   -8.5275    4.9308  -17.6591 H   0  0  0  0  0  0  0  0  0  0  0  0
   -7.2128    3.7577  -17.7168 H   0  0  0  0  0  0  0  0  0  0  0  0
   -6.9229    4.5336  -16.1299 H   0  0  0  0  0  0  0  0  0  0  0  0
   -4.9908    3.1250  -16.9006 H   0  0  0  0  0  0  0  0  0  0  0  0
   -5.7266    2.5517  -15.3379 H   0  0  0  0  0  0  0  0  0  0  0  0
   -5.2774    0.6053  -16.6248 H   0  0  0  0  0  0  0  0  0  0  0  0
   -5.5610    0.4020  -18.8160 H   0  0  0  0  0  0  0  0  0  0  0  0
   -5.2600    1.9990  -18.7470 H   0  0  0  0  0  0  0  0  0  0  0  0
   -7.6027   -0.2484  -17.1440 H   0  0  0  0  0  0  0  0  0  0  0  0
   -7.3441    0.4595  -15.4881 H   0  0  0  0  0  0  0  0  0  0  0  0
   -8.7213    1.8131  -17.8550 H   0  0  0  0  0  0  0  0  0  0  0  0
   -9.5049    1.2014  -16.3664 H   0  0  0  0  0  0  0  0  0  0  0  0
  -17.7774    0.9388   -7.3685 H   0  0  0  0  0  0  0  0  0  0  0  0
  -18.7396   -0.4145   -7.1083 H   0  0  0  0  0  0  0  0  0  0  0  0
  -15.4812   -0.5073   -5.0353 H   0  0  0  0  0  0  0  0  0  0  0  0
  -16.5698   -1.7806   -4.9040 H   0  0  0  0  0  0  0  0  0  0  0  0
  1  2  1  0
  2  3  1  0
  3  4  1  0
  4  5  1  0
  5  6  2  0
  6  7  1  0
  7  8  2  0
  8  9  1  0
  9 10  2  0
  9 11  1  0
 11 12  2  0
 12 13  1  0
 13 14  1  0
 14 15  1  0
 15 16  2  0
 16 17  1  0
 17 18  2  0
 18 19  1  0
 19 20  2  0
 20 21  1  0
 21 22  1  0
 22 23  1  0
 23 24  1  0
 24 25  1  0
 25 26  1  0
 25 27  1  0
 27 28  1  0
 21 29  2  0
 29 30  1  0
  2 31  1  0
 31 32  1  0
 32 33  1  0
 33  2  1  0
 10  5  1  0
 30 14  2  0
 13  8  1  0
 29 17  1  0
 28 22  1  0
  1 34  1  0
  1 35  1  0
  1 36  1  0
  3 37  1  0
  3 38  1  0
  6 39  1  0
  7 40  1  0
 10 41  1  0
 12 42  1  0
 15 43  1  0
 16 44  1  0
 18 45  1  0
 19 46  1  0
 20 47  1  0
 23 48  1  0
 23 49  1  0
 24 50  1  0
 24 51  1  0
 25 52  1  0
 26 53  1  0
 26 54  1  0
 27 55  1  0
 27 56  1  0
 28 57  1  0
 28 58  1  0
 31 59  1  0
 31 60  1  0
 33 61  1  0
 33 62  1  0
M  END
>  <meeko>  (5) 
{"is_sidechain": false}

>  <vina_affinity_kcal_mol>  (5) 
-9.571

>  <pose_rank>  (5) 
5

$$$$

     RDKit          3D

 62 67  0  0  0  0  0  0  0  0999 V2000
   -1.0480   -1.4560  -19.1130 C   0  0  0  0  0  0  0  0  0  0  0  0
   -1.8190   -0.2460  -18.6020 C   0  0  0  0  0  0  0  0  0  0  0  0
   -3.2170   -0.5870  -18.0870 C   0  0  0  0  0  0  0  0  0  0  0  0
   -4.1280    0.4030  -18.5720 O   0  0  0  0  0  0  0  0  0  0  0  0
   -4.9820    0.9640  -17.6620 C   0  0  0  0  0  0  0  0  0  0  0  0
   -6.3210    0.9710  -18.0520 C   0  0  0  0  0  0  0  0  0  0  0  0
   -7.3290    1.5100  -17.2410 C   0  0  0  0  0  0  0  0  0  0  0  0
   -6.9500    2.0720  -16.0120 C   0  0  0  0  0  0  0  0  0  0  0  0
   -5.6200    2.0280  -15.5860 C   0  0  0  0  0  0  0  0  0  0  0  0
   -4.6230    1.4870  -16.4190 C   0  0  0  0  0  0  0  0  0  0  0  0
   -5.4760    2.5320  -14.3230 N   0  0  0  0  0  0  0  0  0  0  0  0
   -6.6880    2.8840  -13.9660 C   0  0  0  0  0  0  0  0  0  0  0  0
   -7.6240    2.6890  -14.9600 N   0  0  0  0  0  0  0  0  0  0  0  0
   -8.9880    3.0810  -14.8240 C   0  0  0  0  0  0  0  0  0  0  0  0
   -9.5360    4.0740  -15.6140 C   0  0  0  0  0  0  0  0  0  0  0  0
  -10.8730    4.4070  -15.4240 C   0  0  0  0  0  0  0  0  0  0  0  0
  -11.6350    3.7520  -14.4500 C   0  0  0  0  0  0  0  0  0  0  0  0
  -12.9850    4.0910  -14.2650 C   0  0  0  0  0  0  0  0  0  0  0  0
  -13.7460    3.4500  -13.2960 C   0  0  0  0  0  0  0  0  0  0  0  0
  -13.1590    2.4680  -12.5110 C   0  0  0  0  0  0  0  0  0  0  0  0
  -11.8070    2.1110  -12.6780 C   0  0  0  0  0  0  0  0  0  0  0  0
  -11.3420    1.0850  -11.8030 N   0  0  0  0  0  0  0  0  0  0  0  0
  -10.9670   -0.1370  -12.5330 C   0  0  0  0  0  0  0  0  0  0  0  0
  -10.2340   -1.0730  -11.5720 C   0  0  0  0  0  0  0  0  0  0  0  0
  -11.0490   -1.3750  -10.3080 C   0  0  0  0  0  0  0  0  0  0  0  0
  -12.1300   -2.3250  -10.5960 N   0  0  0  0  0  0  0  0  0  0  0  0
  -11.5740   -0.0790   -9.6730 C   0  0  0  0  0  0  0  0  0  0  0  0
  -12.2690    0.8320  -10.6870 C   0  0  0  0  0  0  0  0  0  0  0  0
  -11.0140    2.7600  -13.6600 C   0  0  0  0  0  0  0  0  0  0  0  0
   -9.7050    2.4560  -13.8520 N   0  0  0  0  0  0  0  0  0  0  0  0
   -1.0240    0.6400  -17.6250 C   0  0  0  0  0  0  0  0  0  0  0  0
   -1.2850    1.8180  -18.4260 O   0  0  0  0  0  0  0  0  0  0  0  0
   -1.7780    0.9940  -19.5120 C   0  0  0  0  0  0  0  0  0  0  0  0
   -0.6754   -2.0407  -18.2590 H   0  0  0  0  0  0  0  0  0  0  0  0
   -1.7133   -2.0832  -19.7245 H   0  0  0  0  0  0  0  0  0  0  0  0
   -0.1984   -1.1179  -19.7245 H   0  0  0  0  0  0  0  0  0  0  0  0
   -3.5166   -1.5798  -18.4539 H   0  0  0  0  0  0  0  0  0  0  0  0
   -3.2228   -0.6010  -16.9871 H   0  0  0  0  0  0  0  0  0  0  0  0
   -6.5945    0.5401  -19.0264 H   0  0  0  0  0  0  0  0  0  0  0  0
   -8.3824    1.4931  -17.5573 H   0  0  0  0  0  0  0  0  0  0  0  0
   -3.5722    1.4765  -16.0939 H   0  0  0  0  0  0  0  0  0  0  0  0
   -6.9330    3.2931  -12.9747 H   0  0  0  0  0  0  0  0  0  0  0  0
   -8.9297    4.5882  -16.3742 H   0  0  0  0  0  0  0  0  0  0  0  0
  -11.3344    5.1903  -16.0433 H   0  0  0  0  0  0  0  0  0  0  0  0
  -13.4432    4.8699  -14.8921 H   0  0  0  0  0  0  0  0  0  0  0  0
  -14.8031    3.7181  -13.1524 H   0  0  0  0  0  0  0  0  0  0  0  0
  -13.7609    1.9588  -11.7439 H   0  0  0  0  0  0  0  0  0  0  0  0
  -11.8715   -0.6326  -12.9155 H   0  0  0  0  0  0  0  0  0  0  0  0
  -10.3145    0.1171  -13.3813 H   0  0  0  0  0  0  0  0  0  0  0  0
  -10.0261   -2.0198  -12.0920 H   0  0  0  0  0  0  0  0  0  0  0  0
   -9.3068   -0.5706  -11.2591 H   0  0  0  0  0  0  0  0  0  0  0  0
  -10.3853   -1.8523   -9.5720 H   0  0  0  0  0  0  0  0  0  0  0  0
  -12.1900   -2.5110  -11.5950 H   0  0  0  0  0  0  0  0  0  0  0  0
  -13.0270   -1.9150  -10.3350 H   0  0  0  0  0  0  0  0  0  0  0  0
  -12.2931   -0.3399   -8.8825 H   0  0  0  0  0  0  0  0  0  0  0  0
  -10.7097    0.4689   -9.2696 H   0  0  0  0  0  0  0  0  0  0  0  0
  -13.1782    0.3410  -11.0643 H   0  0  0  0  0  0  0  0  0  0  0  0
  -12.5498    1.7819  -10.2086 H   0  0  0  0  0  0  0  0  0  0  0  0
   -1.4569    0.6856  -16.6148 H   0  0  0  0  0  0  0  0  0  0  0  0
    0.0123    0.3743  -17.3691 H   0  0  0  0  0  0  0  0  0  0  0  0
   -2.7649    1.3006  -19.8888 H   0  0  0  0  0  0  0  0  0  0  0  0
   -1.2230    0.9548  -20.4609 H   0  0  0  0  0  0  0  0  0  0  0  0
  1  2  1  0
  2  3  1  0
  3  4  1  0
  4  5  1  0
  5  6  2  0
  6  7  1  0
  7  8  2  0
  8  9  1  0
  9 10  2  0
  9 11  1  0
 11 12  2  0
 12 13  1  0
 13 14  1  0
 14 15  1  0
 15 16  2  0
 16 17  1  0
 17 18  2  0
 18 19  1  0
 19 20  2  0
 20 21  1  0
 21 22  1  0
 22 23  1  0
 23 24  1  0
 24 25  1  0
 25 26  1  0
 25 27  1  0
 27 28  1  0
 21 29  2  0
 29 30  1  0
  2 31  1  0
 31 32  1  0
 32 33  1  0
 33  2  1  0
 10  5  1  0
 30 14  2  0
 13  8  1  0
 29 17  1  0
 28 22  1  0
  1 34  1  0
  1 35  1  0
  1 36  1  0
  3 37  1  0
  3 38  1  0
  6 39  1  0
  7 40  1  0
 10 41  1  0
 12 42  1  0
 15 43  1  0
 16 44  1  0
 18 45  1  0
 19 46  1  0
 20 47  1  0
 23 48  1  0
 23 49  1  0
 24 50  1  0
 24 51  1  0
 25 52  1  0
 26 53  1  0
 26 54  1  0
 27 55  1  0
 27 56  1  0
 28 57  1  0
 28 58  1  0
 31 59  1  0
 31 60  1  0
 33 61  1  0
 33 62  1  0
M  END
>  <meeko>  (6) 
{"is_sidechain": false}

>  <vina_affinity_kcal_mol>  (6) 
-9.538

>  <pose_rank>  (6) 
6

$$$$

     RDKit          3D

 62 67  0  0  0  0  0  0  0  0999 V2000
   -9.1460    9.5020  -19.3630 C   0  0  0  0  0  0  0  0  0  0  0  0
   -9.4170    8.0060  -19.2610 C   0  0  0  0  0  0  0  0  0  0  0  0
   -9.4120    7.4830  -17.8240 C   0  0  0  0  0  0  0  0  0  0  0  0
   -8.7370    6.2220  -17.8080 O   0  0  0  0  0  0  0  0  0  0  0  0
   -9.2060    5.2750  -16.9400 C   0  0  0  0  0  0  0  0  0  0  0  0
  -10.4300    5.5870  -16.3480 C   0  0  0  0  0  0  0  0  0  0  0  0
  -11.0540    4.7280  -15.4320 C   0  0  0  0  0  0  0  0  0  0  0  0
  -10.3950    3.5340  -15.1010 C   0  0  0  0  0  0  0  0  0  0  0  0
   -9.1930    3.1850  -15.7230 C   0  0  0  0  0  0  0  0  0  0  0  0
   -8.5810    4.0640  -16.6350 C   0  0  0  0  0  0  0  0  0  0  0  0
   -8.7690    1.9420  -15.3430 N   0  0  0  0  0  0  0  0  0  0  0  0
   -9.6840    1.5220  -14.5020 C   0  0  0  0  0  0  0  0  0  0  0  0
  -10.6700    2.4560  -14.2620 N   0  0  0  0  0  0  0  0  0  0  0  0
  -11.7170    2.2490  -13.3170 C   0  0  0  0  0  0  0  0  0  0  0  0
  -12.9250    2.9110  -13.4210 C   0  0  0  0  0  0  0  0  0  0  0  0
  -13.9000    2.6610  -12.4600 C   0  0  0  0  0  0  0  0  0  0  0  0
  -13.6520    1.7640  -11.4150 C   0  0  0  0  0  0  0  0  0  0  0  0
  -14.6410    1.5140  -10.4500 C   0  0  0  0  0  0  0  0  0  0  0  0
  -14.4010    0.6300   -9.4070 C   0  0  0  0  0  0  0  0  0  0  0  0
  -13.1700   -0.0070   -9.3260 C   0  0  0  0  0  0  0  0  0  0  0  0
  -12.1630    0.2280  -10.2820 C   0  0  0  0  0  0  0  0  0  0  0  0
  -10.9530   -0.4980  -10.0730 N   0  0  0  0  0  0  0  0  0  0  0  0
  -10.7550   -1.5470  -11.0870 C   0  0  0  0  0  0  0  0  0  0  0  0
   -9.3300   -2.0870  -10.9580 C   0  0  0  0  0  0  0  0  0  0  0  0
   -9.0130   -2.5780   -9.5400 C   0  0  0  0  0  0  0  0  0  0  0  0
   -9.6530   -3.8720   -9.2780 N   0  0  0  0  0  0  0  0  0  0  0  0
   -9.4010   -1.5210   -8.4950 C   0  0  0  0  0  0  0  0  0  0  0  0
  -10.8240   -0.9950   -8.6930 C   0  0  0  0  0  0  0  0  0  0  0  0
  -12.3910    1.1320  -11.3510 C   0  0  0  0  0  0  0  0  0  0  0  0
  -11.4480    1.3970  -12.2910 N   0  0  0  0  0  0  0  0  0  0  0  0
  -10.6420    7.5320  -20.0630 C   0  0  0  0  0  0  0  0  0  0  0  0
   -9.8520    6.5280  -20.7440 O   0  0  0  0  0  0  0  0  0  0  0  0
   -8.6280    7.1240  -20.2450 C   0  0  0  0  0  0  0  0  0  0  0  0
   -9.0684    9.9303  -18.3528 H   0  0  0  0  0  0  0  0  0  0  0  0
   -8.2032    9.6677  -19.9049 H   0  0  0  0  0  0  0  0  0  0  0  0
   -9.9707    9.9879  -19.9049 H   0  0  0  0  0  0  0  0  0  0  0  0
   -8.8861    8.1949  -17.1708 H   0  0  0  0  0  0  0  0  0  0  0  0
  -10.4432    7.3658  -17.4594 H   0  0  0  0  0  0  0  0  0  0  0  0
  -10.9210    6.5364  -16.6078 H   0  0  0  0  0  0  0  0  0  0  0  0
  -12.0278    4.9816  -14.9876 H   0  0  0  0  0  0  0  0  0  0  0  0
   -7.6209    3.8004  -17.1027 H   0  0  0  0  0  0  0  0  0  0  0  0
   -9.6666    0.5259  -14.0355 H   0  0  0  0  0  0  0  0  0  0  0  0
  -13.1115    3.6180  -14.2428 H   0  0  0  0  0  0  0  0  0  0  0  0
  -14.8721    3.1719  -12.5223 H   0  0  0  0  0  0  0  0  0  0  0  0
  -15.6137    2.0227  -10.5211 H   0  0  0  0  0  0  0  0  0  0  0  0
  -15.1778    0.4362   -8.6527 H   0  0  0  0  0  0  0  0  0  0  0  0
  -12.9778   -0.7078   -8.5002 H   0  0  0  0  0  0  0  0  0  0  0  0
  -11.4762   -2.3614  -10.9235 H   0  0  0  0  0  0  0  0  0  0  0  0
  -10.9097   -1.1310  -12.0935 H   0  0  0  0  0  0  0  0  0  0  0  0
   -9.2065   -2.9267  -11.6577 H   0  0  0  0  0  0  0  0  0  0  0  0
   -8.6387   -1.2630  -11.1882 H   0  0  0  0  0  0  0  0  0  0  0  0
   -7.9266   -2.7312   -9.4603 H   0  0  0  0  0  0  0  0  0  0  0  0
   -9.0450   -4.4700   -8.7220 H   0  0  0  0  0  0  0  0  0  0  0  0
   -9.8020   -4.3670  -10.1570 H   0  0  0  0  0  0  0  0  0  0  0  0
   -9.3276   -1.9712   -7.4940 H   0  0  0  0  0  0  0  0  0  0  0  0
   -8.7120   -0.6710   -8.6081 H   0  0  0  0  0  0  0  0  0  0  0  0
  -11.5463   -1.8069   -8.5224 H   0  0  0  0  0  0  0  0  0  0  0  0
  -11.0269   -0.1822   -7.9802 H   0  0  0  0  0  0  0  0  0  0  0  0
  -11.4465    7.1154  -19.4391 H   0  0  0  0  0  0  0  0  0  0  0  0
  -11.2223    8.2587  -20.6505 H   0  0  0  0  0  0  0  0  0  0  0  0
   -7.9527    6.4070  -19.7552 H   0  0  0  0  0  0  0  0  0  0  0  0
   -7.9221    7.5894  -20.9486 H   0  0  0  0  0  0  0  0  0  0  0  0
  1  2  1  0
  2  3  1  0
  3  4  1  0
  4  5  1  0
  5  6  2  0
  6  7  1  0
  7  8  2  0
  8  9  1  0
  9 10  2  0
  9 11  1  0
 11 12  2  0
 12 13  1  0
 13 14  1  0
 14 15  1  0
 15 16  2  0
 16 17  1  0
 17 18  2  0
 18 19  1  0
 19 20  2  0
 20 21  1  0
 21 22  1  0
 22 23  1  0
 23 24  1  0
 24 25  1  0
 25 26  1  0
 25 27  1  0
 27 28  1  0
 21 29  2  0
 29 30  1  0
  2 31  1  0
 31 32  1  0
 32 33  1  0
 33  2  1  0
 10  5  1  0
 30 14  2  0
 13  8  1  0
 29 17  1  0
 28 22  1  0
  1 34  1  0
  1 35  1  0
  1 36  1  0
  3 37  1  0
  3 38  1  0
  6 39  1  0
  7 40  1  0
 10 41  1  0
 12 42  1  0
 15 43  1  0
 16 44  1  0
 18 45  1  0
 19 46  1  0
 20 47  1  0
 23 48  1  0
 23 49  1  0
 24 50  1  0
 24 51  1  0
 25 52  1  0
 26 53  1  0
 26 54  1  0
 27 55  1  0
 27 56  1  0
 28 57  1  0
 28 58  1  0
 31 59  1  0
 31 60  1  0
 33 61  1  0
 33 62  1  0
M  END
>  <meeko>  (7) 
{"is_sidechain": false}

>  <vina_affinity_kcal_mol>  (7) 
-9.441

>  <pose_rank>  (7) 
7

$$$$

     RDKit          3D

 62 67  0  0  0  0  0  0  0  0999 V2000
  -15.7840   -2.4210   -6.9430 C   0  0  0  0  0  0  0  0  0  0  0  0
  -14.7880   -2.2780   -8.0850 C   0  0  0  0  0  0  0  0  0  0  0  0
  -14.1060   -0.9100   -8.1310 C   0  0  0  0  0  0  0  0  0  0  0  0
  -14.6530   -0.1710   -9.2260 O   0  0  0  0  0  0  0  0  0  0  0  0
  -13.7710    0.3300  -10.1440 C   0  0  0  0  0  0  0  0  0  0  0  0
  -14.1590    1.5390  -10.7200 C   0  0  0  0  0  0  0  0  0  0  0  0
  -13.3730    2.1900  -11.6810 C   0  0  0  0  0  0  0  0  0  0  0  0
  -12.1740    1.5740  -12.0740 C   0  0  0  0  0  0  0  0  0  0  0  0
  -11.7500    0.3880  -11.4690 C   0  0  0  0  0  0  0  0  0  0  0  0
  -12.5560   -0.2520  -10.5100 C   0  0  0  0  0  0  0  0  0  0  0  0
  -10.5130    0.0090  -11.9140 N   0  0  0  0  0  0  0  0  0  0  0  0
  -10.1720    0.9360  -12.7770 C   0  0  0  0  0  0  0  0  0  0  0  0
  -11.1540    1.8860  -12.9690 N   0  0  0  0  0  0  0  0  0  0  0  0
  -11.0350    2.9360  -13.9260 C   0  0  0  0  0  0  0  0  0  0  0  0
  -11.9970    3.9220  -14.0390 C   0  0  0  0  0  0  0  0  0  0  0  0
  -11.8160    4.9140  -14.9980 C   0  0  0  0  0  0  0  0  0  0  0  0
  -10.6890    4.9020  -15.8250 C   0  0  0  0  0  0  0  0  0  0  0  0
  -10.5110    5.9090  -16.7890 C   0  0  0  0  0  0  0  0  0  0  0  0
   -9.3970    5.9010  -17.6190 C   0  0  0  0  0  0  0  0  0  0  0  0
   -8.4580    4.8870  -17.4860 C   0  0  0  0  0  0  0  0  0  0  0  0
   -8.6150    3.8680  -16.5270 C   0  0  0  0  0  0  0  0  0  0  0  0
   -7.5710    2.8970  -16.5050 N   0  0  0  0  0  0  0  0  0  0  0  0
   -6.2870    3.4550  -16.9600 C   0  0  0  0  0  0  0  0  0  0  0  0
   -5.1800    2.4460  -16.6510 C   0  0  0  0  0  0  0  0  0  0  0  0
   -5.4610    1.0620  -17.2510 C   0  0  0  0  0  0  0  0  0  0  0  0
   -5.2210    1.0600  -18.6990 N   0  0  0  0  0  0  0  0  0  0  0  0
   -6.8810    0.5920  -16.9010 C   0  0  0  0  0  0  0  0  0  0  0  0
   -7.9410    1.6530  -17.2010 C   0  0  0  0  0  0  0  0  0  0  0  0
   -9.7500    3.8590  -15.6750 C   0  0  0  0  0  0  0  0  0  0  0  0
   -9.9490    2.8930  -14.7420 N   0  0  0  0  0  0  0  0  0  0  0  0
  -13.7900   -3.4450   -8.2010 C   0  0  0  0  0  0  0  0  0  0  0  0
  -14.1350   -3.6480   -9.5930 O   0  0  0  0  0  0  0  0  0  0  0  0
  -15.2810   -2.7700   -9.4570 C   0  0  0  0  0  0  0  0  0  0  0  0
  -15.2537   -2.3449   -5.9823 H   0  0  0  0  0  0  0  0  0  0  0  0
  -16.5367   -1.6217   -7.0107 H   0  0  0  0  0  0  0  0  0  0  0  0
  -16.2814   -3.3998   -7.0107 H   0  0  0  0  0  0  0  0  0  0  0  0
  -14.2901   -0.3710   -7.1899 H   0  0  0  0  0  0  0  0  0  0  0  0
  -13.0206   -1.0324   -8.2615 H   0  0  0  0  0  0  0  0  0  0  0  0
  -15.1107    1.9958  -10.4110 H   0  0  0  0  0  0  0  0  0  0  0  0
  -13.6854    3.1521  -12.1131 H   0  0  0  0  0  0  0  0  0  0  0  0
  -12.2328   -1.1995  -10.0541 H   0  0  0  0  0  0  0  0  0  0  0  0
   -9.2018    0.9542  -13.2950 H   0  0  0  0  0  0  0  0  0  0  0  0
  -12.8832    3.9225  -13.3874 H   0  0  0  0  0  0  0  0  0  0  0  0
  -12.5646    5.7127  -15.1060 H   0  0  0  0  0  0  0  0  0  0  0  0
  -11.2592    6.7094  -16.8871 H   0  0  0  0  0  0  0  0  0  0  0  0
   -9.2603    6.6897  -18.3735 H   0  0  0  0  0  0  0  0  0  0  0  0
   -7.5750    4.8795  -18.1420 H   0  0  0  0  0  0  0  0  0  0  0  0
   -6.3269    3.6412  -18.0434 H   0  0  0  0  0  0  0  0  0  0  0  0
   -6.0853    4.4045  -16.4426 H   0  0  0  0  0  0  0  0  0  0  0  0
   -4.2332    2.8238  -17.0642 H   0  0  0  0  0  0  0  0  0  0  0  0
   -5.1279    2.3318  -15.5582 H   0  0  0  0  0  0  0  0  0  0  0  0
   -4.7603    0.3408  -16.8051 H   0  0  0  0  0  0  0  0  0  0  0  0
   -6.0450    1.3860  -19.2010 H   0  0  0  0  0  0  0  0  0  0  0  0
   -5.0600    0.1060  -19.0200 H   0  0  0  0  0  0  0  0  0  0  0  0
   -7.1087   -0.3098  -17.4884 H   0  0  0  0  0  0  0  0  0  0  0  0
   -6.9085    0.3891  -15.8202 H   0  0  0  0  0  0  0  0  0  0  0  0
   -7.9872    1.8345  -18.2849 H   0  0  0  0  0  0  0  0  0  0  0  0
   -8.9265    1.3078  -16.8551 H   0  0  0  0  0  0  0  0  0  0  0  0
  -12.7422   -3.1501   -8.0421 H   0  0  0  0  0  0  0  0  0  0  0  0
  -13.8530   -4.2872   -7.4962 H   0  0  0  0  0  0  0  0  0  0  0  0
  -15.3278   -1.9800  -10.2210 H   0  0  0  0  0  0  0  0  0  0  0  0
  -16.2965   -3.1811   -9.5552 H   0  0  0  0  0  0  0  0  0  0  0  0
  1  2  1  0
  2  3  1  0
  3  4  1  0
  4  5  1  0
  5  6  2  0
  6  7  1  0
  7  8  2  0
  8  9  1  0
  9 10  2  0
  9 11  1  0
 11 12  2  0
 12 13  1  0
 13 14  1  0
 14 15  1  0
 15 16  2  0
 16 17  1  0
 17 18  2  0
 18 19  1  0
 19 20  2  0
 20 21  1  0
 21 22  1  0
 22 23  1  0
 23 24  1  0
 24 25  1  0
 25 26  1  0
 25 27  1  0
 27 28  1  0
 21 29  2  0
 29 30  1  0
  2 31  1  0
 31 32  1  0
 32 33  1  0
 33  2  1  0
 10  5  1  0
 30 14  2  0
 13  8  1  0
 29 17  1  0
 28 22  1  0
  1 34  1  0
  1 35  1  0
  1 36  1  0
  3 37  1  0
  3 38  1  0
  6 39  1  0
  7 40  1  0
 10 41  1  0
 12 42  1  0
 15 43  1  0
 16 44  1  0
 18 45  1  0
 19 46  1  0
 20 47  1  0
 23 48  1  0
 23 49  1  0
 24 50  1  0
 24 51  1  0
 25 52  1  0
 26 53  1  0
 26 54  1  0
 27 55  1  0
 27 56  1  0
 28 57  1  0
 28 58  1  0
 31 59  1  0
 31 60  1  0
 33 61  1  0
 33 62  1  0
M  END
>  <meeko>  (8) 
{"is_sidechain": false}

>  <vina_affinity_kcal_mol>  (8) 
-9.437

>  <pose_rank>  (8) 
8

$$$$

     RDKit          3D

 62 67  0  0  0  0  0  0  0  0999 V2000
   -8.3470    5.9570  -19.1860 C   0  0  0  0  0  0  0  0  0  0  0  0
   -9.6550    6.7070  -19.4000 C   0  0  0  0  0  0  0  0  0  0  0  0
  -10.8280    6.1230  -18.6140 C   0  0  0  0  0  0  0  0  0  0  0  0
  -10.6760    6.4890  -17.2390 O   0  0  0  0  0  0  0  0  0  0  0  0
  -10.9680    5.5350  -16.3030 C   0  0  0  0  0  0  0  0  0  0  0  0
   -9.9310    4.6390  -16.0450 C   0  0  0  0  0  0  0  0  0  0  0  0
  -10.0610    3.5980  -15.1160 C   0  0  0  0  0  0  0  0  0  0  0  0
  -11.2920    3.4620  -14.4540 C   0  0  0  0  0  0  0  0  0  0  0  0
  -12.3230    4.3800  -14.6670 C   0  0  0  0  0  0  0  0  0  0  0  0
  -12.1730    5.4150  -15.6080 C   0  0  0  0  0  0  0  0  0  0  0  0
  -13.3950    4.1350  -13.8540 N   0  0  0  0  0  0  0  0  0  0  0  0
  -13.0430    3.0860  -13.1490 C   0  0  0  0  0  0  0  0  0  0  0  0
  -11.8050    2.5880  -13.4990 N   0  0  0  0  0  0  0  0  0  0  0  0
  -11.2600    1.4020  -12.9250 C   0  0  0  0  0  0  0  0  0  0  0  0
  -10.2520    0.6940  -13.5510 C   0  0  0  0  0  0  0  0  0  0  0  0
   -9.7710   -0.4560  -12.9340 C   0  0  0  0  0  0  0  0  0  0  0  0
  -10.3050   -0.8820  -11.7130 C   0  0  0  0  0  0  0  0  0  0  0  0
   -9.8130   -2.0420  -11.0940 C   0  0  0  0  0  0  0  0  0  0  0  0
  -10.3410   -2.4750   -9.8850 C   0  0  0  0  0  0  0  0  0  0  0  0
  -11.3630   -1.7460   -9.2910 C   0  0  0  0  0  0  0  0  0  0  0  0
  -11.8730   -0.5800   -9.8930 C   0  0  0  0  0  0  0  0  0  0  0  0
  -12.9190    0.0640   -9.1680 N   0  0  0  0  0  0  0  0  0  0  0  0
  -13.1240   -0.5390   -7.8410 C   0  0  0  0  0  0  0  0  0  0  0  0
  -14.0560    0.3650   -7.0340 C   0  0  0  0  0  0  0  0  0  0  0  0
  -15.3780    0.6450   -7.7590 C   0  0  0  0  0  0  0  0  0  0  0  0
  -16.2660   -0.5210   -7.7000 N   0  0  0  0  0  0  0  0  0  0  0  0
  -15.1240    1.1030   -9.2020 C   0  0  0  0  0  0  0  0  0  0  0  0
  -14.1600    0.1800   -9.9500 C   0  0  0  0  0  0  0  0  0  0  0  0
  -11.3470   -0.1280  -11.1310 C   0  0  0  0  0  0  0  0  0  0  0  0
  -11.8120    0.9860  -11.7540 N   0  0  0  0  0  0  0  0  0  0  0  0
   -9.5370    8.2350  -19.2460 C   0  0  0  0  0  0  0  0  0  0  0  0
  -10.1330    8.4480  -20.5480 O   0  0  0  0  0  0  0  0  0  0  0  0
   -9.9930    7.0390  -20.8640 C   0  0  0  0  0  0  0  0  0  0  0  0
   -8.1585    5.8489  -18.1077 H   0  0  0  0  0  0  0  0  0  0  0  0
   -8.4156    4.9610  -19.6479 H   0  0  0  0  0  0  0  0  0  0  0  0
   -7.5221    6.5193  -19.6479 H   0  0  0  0  0  0  0  0  0  0  0  0
  -11.7742    6.5266  -19.0036 H   0  0  0  0  0  0  0  0  0  0  0  0
  -10.8429    5.0277  -18.7146 H   0  0  0  0  0  0  0  0  0  0  0  0
   -8.9811    4.7530  -16.5878 H   0  0  0  0  0  0  0  0  0  0  0  0
   -9.2269    2.9105  -14.9121 H   0  0  0  0  0  0  0  0  0  0  0  0
  -12.9954    6.1214  -15.7940 H   0  0  0  0  0  0  0  0  0  0  0  0
  -13.6711    2.6481  -12.3592 H   0  0  0  0  0  0  0  0  0  0  0  0
   -9.8401    1.0315  -14.5135 H   0  0  0  0  0  0  0  0  0  0  0  0
   -8.9652   -1.0346  -13.4093 H   0  0  0  0  0  0  0  0  0  0  0  0
   -9.0024   -2.6127  -11.5708 H   0  0  0  0  0  0  0  0  0  0  0  0
   -9.9542   -3.3851   -9.4032 H   0  0  0  0  0  0  0  0  0  0  0  0
  -11.7818   -2.0859   -8.3323 H   0  0  0  0  0  0  0  0  0  0  0  0
  -13.5781   -1.5347   -7.9524 H   0  0  0  0  0  0  0  0  0  0  0  0
  -12.1596   -0.6437   -7.3224 H   0  0  0  0  0  0  0  0  0  0  0  0
  -14.2773   -0.1241   -6.0739 H   0  0  0  0  0  0  0  0  0  0  0  0
  -13.5442    1.3280   -6.8898 H   0  0  0  0  0  0  0  0  0  0  0  0
  -15.8902    1.4691   -7.2408 H   0  0  0  0  0  0  0  0  0  0  0  0
  -15.9900   -1.1480   -6.9460 H   0  0  0  0  0  0  0  0  0  0  0  0
  -16.1790   -1.0650   -8.5590 H   0  0  0  0  0  0  0  0  0  0  0  0
  -16.0833    1.1214   -9.7400 H   0  0  0  0  0  0  0  0  0  0  0  0
  -14.6643    2.1014   -9.1591 H   0  0  0  0  0  0  0  0  0  0  0  0
  -14.6165   -0.8136  -10.0702 H   0  0  0  0  0  0  0  0  0  0  0  0
  -13.9397    0.5937  -10.9451 H   0  0  0  0  0  0  0  0  0  0  0  0
  -10.1298    8.6441  -18.4146 H   0  0  0  0  0  0  0  0  0  0  0  0
   -8.5602    8.6848  -19.0145 H   0  0  0  0  0  0  0  0  0  0  0  0
  -10.9213    6.5702  -21.2224 H   0  0  0  0  0  0  0  0  0  0  0  0
   -9.3079    6.7260  -21.6657 H   0  0  0  0  0  0  0  0  0  0  0  0
  1  2  1  0
  2  3  1  0
  3  4  1  0
  4  5  1  0
  5  6  2  0
  6  7  1  0
  7  8  2  0
  8  9  1  0
  9 10  2  0
  9 11  1  0
 11 12  2  0
 12 13  1  0
 13 14  1  0
 14 15  1  0
 15 16  2  0
 16 17  1  0
 17 18  2  0
 18 19  1  0
 19 20  2  0
 20 21  1  0
 21 22  1  0
 22 23  1  0
 23 24  1  0
 24 25  1  0
 25 26  1  0
 25 27  1  0
 27 28  1  0
 21 29  2  0
 29 30  1  0
  2 31  1  0
 31 32  1  0
 32 33  1  0
 33  2  1  0
 10  5  1  0
 30 14  2  0
 13  8  1  0
 29 17  1  0
 28 22  1  0
  1 34  1  0
  1 35  1  0
  1 36  1  0
  3 37  1  0
  3 38  1  0
  6 39  1  0
  7 40  1  0
 10 41  1  0
 12 42  1  0
 15 43  1  0
 16 44  1  0
 18 45  1  0
 19 46  1  0
 20 47  1  0
 23 48  1  0
 23 49  1  0
 24 50  1  0
 24 51  1  0
 25 52  1  0
 26 53  1  0
 26 54  1  0
 27 55  1  0
 27 56  1  0
 28 57  1  0
 28 58  1  0
 31 59  1  0
 31 60  1  0
 33 61  1  0
 33 62  1  0
M  END
>  <meeko>  (9) 
{"is_sidechain": false}

>  <vina_affinity_kcal_mol>  (9) 
-9.359

>  <pose_rank>  (9) 
9

$$$$

     RDKit          3D

 62 67  0  0  0  0  0  0  0  0999 V2000
   -0.9180    0.7030  -18.0060 C   0  0  0  0  0  0  0  0  0  0  0  0
   -1.6420   -0.3890  -18.7820 C   0  0  0  0  0  0  0  0  0  0  0  0
   -3.0980   -0.5760  -18.3560 C   0  0  0  0  0  0  0  0  0  0  0  0
   -3.6520    0.7110  -18.0710 O   0  0  0  0  0  0  0  0  0  0  0  0
   -4.6260    0.7730  -17.1110 C   0  0  0  0  0  0  0  0  0  0  0  0
   -5.8470    1.2780  -17.5570 C   0  0  0  0  0  0  0  0  0  0  0  0
   -6.9520    1.4110  -16.7050 C   0  0  0  0  0  0  0  0  0  0  0  0
   -6.7910    1.0380  -15.3610 C   0  0  0  0  0  0  0  0  0  0  0  0
   -5.5890    0.4850  -14.9120 C   0  0  0  0  0  0  0  0  0  0  0  0
   -4.4900    0.3650  -15.7830 C   0  0  0  0  0  0  0  0  0  0  0  0
   -5.6690    0.0930  -13.6050 N   0  0  0  0  0  0  0  0  0  0  0  0
   -6.8940    0.3940  -13.2430 C   0  0  0  0  0  0  0  0  0  0  0  0
   -7.6140    1.0230  -14.2380 N   0  0  0  0  0  0  0  0  0  0  0  0
   -8.9360    1.5180  -14.0380 C   0  0  0  0  0  0  0  0  0  0  0  0
   -9.8370    0.8630  -13.2200 C   0  0  0  0  0  0  0  0  0  0  0  0
  -11.1110    1.4030  -13.0750 C   0  0  0  0  0  0  0  0  0  0  0  0
  -11.4640    2.5760  -13.7490 C   0  0  0  0  0  0  0  0  0  0  0  0
  -12.7510    3.1180  -13.5960 C   0  0  0  0  0  0  0  0  0  0  0  0
  -13.1120    4.2790  -14.2660 C   0  0  0  0  0  0  0  0  0  0  0  0
  -12.1860    4.9030  -15.0910 C   0  0  0  0  0  0  0  0  0  0  0  0
  -10.8900    4.3780  -15.2600 C   0  0  0  0  0  0  0  0  0  0  0  0
  -10.0470    5.1270  -16.1350 N   0  0  0  0  0  0  0  0  0  0  0  0
  -10.6330    6.4310  -16.4850 C   0  0  0  0  0  0  0  0  0  0  0  0
   -9.5670    7.2700  -17.1900 C   0  0  0  0  0  0  0  0  0  0  0  0
   -8.9630    6.5560  -18.4060 C   0  0  0  0  0  0  0  0  0  0  0  0
   -9.8950    6.5720  -19.5400 N   0  0  0  0  0  0  0  0  0  0  0  0
   -8.5260    5.1290  -18.0400 C   0  0  0  0  0  0  0  0  0  0  0  0
   -9.6200    4.3490  -17.3100 C   0  0  0  0  0  0  0  0  0  0  0  0
  -10.5070    3.1900  -14.5860 C   0  0  0  0  0  0  0  0  0  0  0  0
   -9.2720    2.6420  -14.7250 N   0  0  0  0  0  0  0  0  0  0  0  0
   -1.4760   -0.2910  -20.3100 C   0  0  0  0  0  0  0  0  0  0  0  0
   -1.0130   -1.6610  -20.3830 O   0  0  0  0  0  0  0  0  0  0  0  0
   -0.8670   -1.7090  -18.9410 C   0  0  0  0  0  0  0  0  0  0  0  0
   -1.0357    0.5255  -16.9268 H   0  0  0  0  0  0  0  0  0  0  0  0
    0.1509    0.6899  -18.2653 H   0  0  0  0  0  0  0  0  0  0  0  0
   -1.3462    1.6825  -18.2653 H   0  0  0  0  0  0  0  0  0  0  0  0
   -3.6649   -1.0531  -19.1690 H   0  0  0  0  0  0  0  0  0  0  0  0
   -3.1522   -1.2175  -17.4641 H   0  0  0  0  0  0  0  0  0  0  0  0
   -5.9459    1.5813  -18.6097 H   0  0  0  0  0  0  0  0  0  0  0  0
   -7.9134    1.7949  -17.0770 H   0  0  0  0  0  0  0  0  0  0  0  0
   -3.5355   -0.0453  -15.4217 H   0  0  0  0  0  0  0  0  0  0  0  0
   -7.3049    0.1680  -12.2480 H   0  0  0  0  0  0  0  0  0  0  0  0
   -9.5539   -0.0622  -12.6966 H   0  0  0  0  0  0  0  0  0  0  0  0
  -11.8454    0.9038  -12.4258 H   0  0  0  0  0  0  0  0  0  0  0  0
  -13.4788    2.6183  -12.9398 H   0  0  0  0  0  0  0  0  0  0  0  0
  -14.1209    4.7000  -14.1445 H   0  0  0  0  0  0  0  0  0  0  0  0
  -12.4695    5.8237  -15.6220 H   0  0  0  0  0  0  0  0  0  0  0  0
  -11.4922    6.2834  -17.1558 H   0  0  0  0  0  0  0  0  0  0  0  0
  -10.9762    6.9457  -15.5754 H   0  0  0  0  0  0  0  0  0  0  0  0
  -10.0253    8.2117  -17.5262 H   0  0  0  0  0  0  0  0  0  0  0  0
   -8.7541    7.4485  -16.4708 H   0  0  0  0  0  0  0  0  0  0  0  0
   -8.0618    7.1037  -18.7188 H   0  0  0  0  0  0  0  0  0  0  0  0
  -10.4770    7.4080  -19.5160 H   0  0  0  0  0  0  0  0  0  0  0  0
  -10.5370    5.7830  -19.4700 H   0  0  0  0  0  0  0  0  0  0  0  0
   -8.2670    4.5917  -18.9643 H   0  0  0  0  0  0  0  0  0  0  0  0
   -7.6635    5.2079  -17.3619 H   0  0  0  0  0  0  0  0  0  0  0  0
  -10.4763    4.1937  -17.9828 H   0  0  0  0  0  0  0  0  0  0  0  0
   -9.2345    3.3690  -16.9921 H   0  0  0  0  0  0  0  0  0  0  0  0
   -2.4186   -0.1121  -20.8480 H   0  0  0  0  0  0  0  0  0  0  0  0
   -0.8628    0.5145  -20.7403 H   0  0  0  0  0  0  0  0  0  0  0  0
   -1.3617   -2.5731  -18.4734 H   0  0  0  0  0  0  0  0  0  0  0  0
    0.1349   -1.8091  -18.4981 H   0  0  0  0  0  0  0  0  0  0  0  0
  1  2  1  0
  2  3  1  0
  3  4  1  0
  4  5  1  0
  5  6  2  0
  6  7  1  0
  7  8  2  0
  8  9  1  0
  9 10  2  0
  9 11  1  0
 11 12  2  0
 12 13  1  0
 13 14  1  0
 14 15  1  0
 15 16  2  0
 16 17  1  0
 17 18  2  0
 18 19  1  0
 19 20  2  0
 20 21  1  0
 21 22  1  0
 22 23  1  0
 23 24  1  0
 24 25  1  0
 25 26  1  0
 25 27  1  0
 27 28  1  0
 21 29  2  0
 29 30  1  0
  2 31  1  0
 31 32  1  0
 32 33  1  0
 33  2  1  0
 10  5  1  0
 30 14  2  0
 13  8  1  0
 29 17  1  0
 28 22  1  0
  1 34  1  0
  1 35  1  0
  1 36  1  0
  3 37  1  0
  3 38  1  0
  6 39  1  0
  7 40  1  0
 10 41  1  0
 12 42  1  0
 15 43  1  0
 16 44  1  0
 18 45  1  0
 19 46  1  0
 20 47  1  0
 23 48  1  0
 23 49  1  0
 24 50  1  0
 24 51  1  0
 25 52  1  0
 26 53  1  0
 26 54  1  0
 27 55  1  0
 27 56  1  0
 28 57  1  0
 28 58  1  0
 31 59  1  0
 31 60  1  0
 33 61  1  0
 33 62  1  0
M  END
>  <meeko>  (10) 
{"is_sidechain": false}

>  <vina_affinity_kcal_mol>  (10) 
-9.07

>  <pose_rank>  (10) 
10

$$$$
