
     RDKit          3D

 48 50  0  0  0  0  0  0  0  0999 V2000
  -38.2190  165.1060   -7.1190 C   0  0  0  0  0  0  0  0  0  0  0  0
  -38.3260  164.0020   -6.2050 N   0  0  0  0  0  0  0  0  0  0  0  0
  -38.3620  164.1750   -4.8370 C   0  0  0  0  0  0  0  0  0  0  0  0
  -38.2160  165.2540   -4.2730 O   0  0  0  0  0  0  0  0  0  0  0  0
  -38.6170  162.9160   -4.0650 C   0  0  0  0  0  0  0  0  0  0  0  0
  -39.2330  162.9830   -2.8250 C   0  0  0  0  0  0  0  0  0  0  0  0
  -39.4630  161.7860   -2.1600 C   0  0  0  0  0  0  0  0  0  0  0  0
  -40.0440  161.8610   -0.9150 O   0  0  0  0  0  0  0  0  0  0  0  0
  -39.8580  160.7880   -0.0740 C   0  0  0  0  0  0  0  0  0  0  0  0
  -38.5450  160.3710    0.1500 C   0  0  0  0  0  0  0  0  0  0  0  0
  -38.2800  159.3040    1.0160 C   0  0  0  0  0  0  0  0  0  0  0  0
  -39.3280  158.6600    1.6740 C   0  0  0  0  0  0  0  0  0  0  0  0
  -39.1660  157.5830    2.5730 N   0  0  0  0  0  0  0  0  0  0  0  0
  -37.9850  157.1170    3.1260 C   0  0  0  0  0  0  0  0  0  0  0  0
  -36.8700  157.5330    2.8430 O   0  0  0  0  0  0  0  0  0  0  0  0
  -38.2480  156.1120    4.0450 N   0  0  0  0  0  0  0  0  0  0  0  0
  -37.3130  155.3220    4.7450 C   0  0  0  0  0  0  0  0  0  0  0  0
  -37.5470  153.9450    4.7890 C   0  0  0  0  0  0  0  0  0  0  0  0
  -36.6630  153.0960    5.4570 C   0  0  0  0  0  0  0  0  0  0  0  0
  -35.5290  153.6130    6.0870 C   0  0  0  0  0  0  0  0  0  0  0  0
  -34.4870  152.4970    6.8920 Cl  0  0  0  0  0  0  0  0  0  0  0  0
  -35.2660  154.9860    6.0490 C   0  0  0  0  0  0  0  0  0  0  0  0
  -34.0480  155.5690    6.7120 C   0  0  0  0  0  0  0  0  0  0  0  0
  -34.1070  155.5220    8.0720 F   0  0  0  0  0  0  0  0  0  0  0  0
  -33.8390  156.8830    6.4060 F   0  0  0  0  0  0  0  0  0  0  0  0
  -32.8960  154.9340    6.3570 F   0  0  0  0  0  0  0  0  0  0  0  0
  -36.1710  155.8300    5.3700 C   0  0  0  0  0  0  0  0  0  0  0  0
  -40.6360  159.1170    1.4590 C   0  0  0  0  0  0  0  0  0  0  0  0
  -41.6540  158.5210    2.1010 F   0  0  0  0  0  0  0  0  0  0  0  0
  -40.9130  160.1740    0.5980 C   0  0  0  0  0  0  0  0  0  0  0  0
  -39.0460  160.5800   -2.7200 C   0  0  0  0  0  0  0  0  0  0  0  0
  -38.4380  160.6160   -3.9620 C   0  0  0  0  0  0  0  0  0  0  0  0
  -38.2190  161.7530   -4.6570 N   0  0  0  0  0  0  0  0  0  0  0  0
  -38.1281  166.0441   -6.5518 H   0  0  0  0  0  0  0  0  0  0  0  0
  -37.3296  164.9728   -7.7524 H   0  0  0  0  0  0  0  0  0  0  0  0
  -39.1175  165.1461   -7.7524 H   0  0  0  0  0  0  0  0  0  0  0  0
  -38.5640  163.0730   -6.5420 H   0  0  0  0  0  0  0  0  0  0  0  0
  -39.5281  163.9470   -2.3849 H   0  0  0  0  0  0  0  0  0  0  0  0
  -37.7141  160.8837   -0.3568 H   0  0  0  0  0  0  0  0  0  0  0  0
  -37.2437  158.9726    1.1781 H   0  0  0  0  0  0  0  0  0  0  0  0
  -39.9910  157.0110    2.6990 H   0  0  0  0  0  0  0  0  0  0  0  0
  -39.2080  156.0370    4.3470 H   0  0  0  0  0  0  0  0  0  0  0  0
  -38.4353  153.5266    4.2931 H   0  0  0  0  0  0  0  0  0  0  0  0
  -36.8606  152.0143    5.4873 H   0  0  0  0  0  0  0  0  0  0  0  0
  -35.9730  156.9114    5.3320 H   0  0  0  0  0  0  0  0  0  0  0  0
  -41.9470  160.5191    0.4502 H   0  0  0  0  0  0  0  0  0  0  0  0
  -39.1959  159.6277   -2.1902 H   0  0  0  0  0  0  0  0  0  0  0  0
  -38.1145  159.6644   -4.4090 H   0  0  0  0  0  0  0  0  0  0  0  0
  1  2  1  0
  2  3  1  0
  3  4  2  0
  3  5  1  0
  5  6  2  0
  6  7  1  0
  7  8  1  0
  8  9  1  0
  9 10  1  0
 10 11  2  0
 11 12  1  0
 12 13  1  0
 13 14  1  0
 14 15  2  0
 14 16  1  0
 16 17  1  0
 17 18  1  0
 18 19  2  0
 19 20  1  0
 20 21  1  0
 20 22  2  0
 22 23  1  0
 23 24  1  0
 23 25  1  0
 23 26  1  0
 22 27  1  0
 12 28  2  0
 28 29  1  0
 28 30  1  0
  7 31  2  0
 31 32  1  0
 32 33  2  0
 33  5  1  0
 30  9  2  0
 27 17  2  0
  1 34  1  0
  1 35  1  0
  1 36  1  0
  2 37  1  0
  6 38  1  0
 10 39  1  0
 11 40  1  0
 13 41  1  0
 16 42  1  0
 18 43  1  0
 19 44  1  0
 27 45  1  0
 30 46  1  0
 31 47  1  0
 32 48  1  0
M  END
>  <meeko>  (1) 
{"is_sidechain": false}

>  <vina_affinity_kcal_mol>  (1) 
-11.781

>  <pose_rank>  (1) 
1

$$$$

     RDKit          3D

 48 50  0  0  0  0  0  0  0  0999 V2000
  -37.8540  162.4150   -9.2600 C   0  0  0  0  0  0  0  0  0  0  0  0
  -38.1800  162.6540   -7.8810 N   0  0  0  0  0  0  0  0  0  0  0  0
  -37.3060  162.3690   -6.8530 C   0  0  0  0  0  0  0  0  0  0  0  0
  -36.2240  161.8120   -7.0020 O   0  0  0  0  0  0  0  0  0  0  0  0
  -37.7760  162.8180   -5.5030 C   0  0  0  0  0  0  0  0  0  0  0  0
  -38.7590  162.0970   -4.8430 C   0  0  0  0  0  0  0  0  0  0  0  0
  -39.1450  162.5450   -3.5870 C   0  0  0  0  0  0  0  0  0  0  0  0
  -40.1450  161.8440   -2.9510 O   0  0  0  0  0  0  0  0  0  0  0  0
  -39.7540  160.8840   -2.0460 C   0  0  0  0  0  0  0  0  0  0  0  0
  -40.3700  160.8960   -0.7940 C   0  0  0  0  0  0  0  0  0  0  0  0
  -40.0420  159.9300    0.1640 C   0  0  0  0  0  0  0  0  0  0  0  0
  -39.1060  158.9390   -0.1330 C   0  0  0  0  0  0  0  0  0  0  0  0
  -38.7140  157.9160    0.7590 N   0  0  0  0  0  0  0  0  0  0  0  0
  -38.0820  158.0610    1.9820 C   0  0  0  0  0  0  0  0  0  0  0  0
  -37.6870  159.1230    2.4420 O   0  0  0  0  0  0  0  0  0  0  0  0
  -37.9600  156.8300    2.6090 N   0  0  0  0  0  0  0  0  0  0  0  0
  -37.2920  156.5440    3.8180 C   0  0  0  0  0  0  0  0  0  0  0  0
  -38.0230  155.8840    4.8100 C   0  0  0  0  0  0  0  0  0  0  0  0
  -37.4290  155.5600    6.0310 C   0  0  0  0  0  0  0  0  0  0  0  0
  -36.0930  155.8870    6.2750 C   0  0  0  0  0  0  0  0  0  0  0  0
  -35.4340  155.4520    7.8090 Cl  0  0  0  0  0  0  0  0  0  0  0  0
  -35.3370  156.5390    5.2940 C   0  0  0  0  0  0  0  0  0  0  0  0
  -33.8940  156.8960    5.5270 C   0  0  0  0  0  0  0  0  0  0  0  0
  -33.3560  157.6280    4.5130 F   0  0  0  0  0  0  0  0  0  0  0  0
  -33.0800  155.8080    5.6580 F   0  0  0  0  0  0  0  0  0  0  0  0
  -33.7040  157.6200    6.6660 F   0  0  0  0  0  0  0  0  0  0  0  0
  -35.9540  156.8590    4.0660 C   0  0  0  0  0  0  0  0  0  0  0  0
  -38.5250  158.9270   -1.4090 C   0  0  0  0  0  0  0  0  0  0  0  0
  -37.6370  157.9670   -1.7170 F   0  0  0  0  0  0  0  0  0  0  0  0
  -38.8400  159.8830   -2.3690 C   0  0  0  0  0  0  0  0  0  0  0  0
  -38.5820  163.7000   -3.0490 C   0  0  0  0  0  0  0  0  0  0  0  0
  -37.6080  164.3510   -3.7850 C   0  0  0  0  0  0  0  0  0  0  0  0
  -37.1820  163.9380   -4.9970 N   0  0  0  0  0  0  0  0  0  0  0  0
  -36.9682  161.7656   -9.3201 H   0  0  0  0  0  0  0  0  0  0  0  0
  -38.7032  161.9239   -9.7577 H   0  0  0  0  0  0  0  0  0  0  0  0
  -37.6411  163.3726   -9.7577 H   0  0  0  0  0  0  0  0  0  0  0  0
  -38.9940  163.2090   -7.6320 H   0  0  0  0  0  0  0  0  0  0  0  0
  -39.2153  161.2049   -5.2967 H   0  0  0  0  0  0  0  0  0  0  0  0
  -41.1170  161.6685   -0.5589 H   0  0  0  0  0  0  0  0  0  0  0  0
  -40.5231  159.9521    1.1530 H   0  0  0  0  0  0  0  0  0  0  0  0
  -38.7770  156.9800    0.3800 H   0  0  0  0  0  0  0  0  0  0  0  0
  -38.5310  156.0890    2.2310 H   0  0  0  0  0  0  0  0  0  0  0  0
  -39.0745  155.6179    4.6270 H   0  0  0  0  0  0  0  0  0  0  0  0
  -38.0162  155.0444    6.8052 H   0  0  0  0  0  0  0  0  0  0  0  0
  -35.3681  157.3680    3.2865 H   0  0  0  0  0  0  0  0  0  0  0  0
  -38.3757  159.8494   -3.3657 H   0  0  0  0  0  0  0  0  0  0  0  0
  -38.9021  164.0829   -2.0687 H   0  0  0  0  0  0  0  0  0  0  0  0
  -37.1547  165.2575   -3.3575 H   0  0  0  0  0  0  0  0  0  0  0  0
  1  2  1  0
  2  3  1  0
  3  4  2  0
  3  5  1  0
  5  6  2  0
  6  7  1  0
  7  8  1  0
  8  9  1  0
  9 10  1  0
 10 11  2  0
 11 12  1  0
 12 13  1  0
 13 14  1  0
 14 15  2  0
 14 16  1  0
 16 17  1  0
 17 18  1  0
 18 19  2  0
 19 20  1  0
 20 21  1  0
 20 22  2  0
 22 23  1  0
 23 24  1  0
 23 25  1  0
 23 26  1  0
 22 27  1  0
 12 28  2  0
 28 29  1  0
 28 30  1  0
  7 31  2  0
 31 32  1  0
 32 33  2  0
 33  5  1  0
 30  9  2  0
 27 17  2  0
  1 34  1  0
  1 35  1  0
  1 36  1  0
  2 37  1  0
  6 38  1  0
 10 39  1  0
 11 40  1  0
 13 41  1  0
 16 42  1  0
 18 43  1  0
 19 44  1  0
 27 45  1  0
 30 46  1  0
 31 47  1  0
 32 48  1  0
M  END
>  <meeko>  (2) 
{"is_sidechain": false}

>  <vina_affinity_kcal_mol>  (2) 
-11.254

>  <pose_rank>  (2) 
2

$$$$

     RDKit          3D

 48 50  0  0  0  0  0  0  0  0999 V2000
  -38.2100  164.8150   -6.7960 C   0  0  0  0  0  0  0  0  0  0  0  0
  -38.4030  163.7060   -5.9020 N   0  0  0  0  0  0  0  0  0  0  0  0
  -38.3520  163.8430   -4.5310 C   0  0  0  0  0  0  0  0  0  0  0  0
  -38.0510  164.8800   -3.9520 O   0  0  0  0  0  0  0  0  0  0  0  0
  -38.7160  162.6010   -3.7750 C   0  0  0  0  0  0  0  0  0  0  0  0
  -39.3450  162.7050   -2.5450 C   0  0  0  0  0  0  0  0  0  0  0  0
  -39.6790  161.5240   -1.8960 C   0  0  0  0  0  0  0  0  0  0  0  0
  -40.2730  161.6330   -0.6590 O   0  0  0  0  0  0  0  0  0  0  0  0
  -40.0450  160.6120    0.2340 C   0  0  0  0  0  0  0  0  0  0  0  0
  -38.7200  160.3530    0.5850 C   0  0  0  0  0  0  0  0  0  0  0  0
  -38.4170  159.3480    1.5110 C   0  0  0  0  0  0  0  0  0  0  0  0
  -39.4420  158.6080    2.1010 C   0  0  0  0  0  0  0  0  0  0  0  0
  -39.2430  157.5820    3.0510 N   0  0  0  0  0  0  0  0  0  0  0  0
  -38.0490  156.9690    3.3930 C   0  0  0  0  0  0  0  0  0  0  0  0
  -36.9750  157.1800    2.8460 O   0  0  0  0  0  0  0  0  0  0  0  0
  -38.2460  156.0850    4.4420 N   0  0  0  0  0  0  0  0  0  0  0  0
  -37.3030  155.2030    5.0110 C   0  0  0  0  0  0  0  0  0  0  0  0
  -36.1580  155.7700    5.5750 C   0  0  0  0  0  0  0  0  0  0  0  0
  -35.1820  154.9630    6.1640 C   0  0  0  0  0  0  0  0  0  0  0  0
  -35.3420  153.5760    6.1990 C   0  0  0  0  0  0  0  0  0  0  0  0
  -34.0900  152.6500    6.9430 Cl  0  0  0  0  0  0  0  0  0  0  0  0
  -36.4840  152.9840    5.6500 C   0  0  0  0  0  0  0  0  0  0  0  0
  -36.6850  151.4930    5.6820 C   0  0  0  0  0  0  0  0  0  0  0  0
  -36.7530  150.9910    6.9460 F   0  0  0  0  0  0  0  0  0  0  0  0
  -35.6830  150.7970    5.0710 F   0  0  0  0  0  0  0  0  0  0  0  0
  -37.8270  151.0990    5.0510 F   0  0  0  0  0  0  0  0  0  0  0  0
  -37.4600  153.8150    5.0590 C   0  0  0  0  0  0  0  0  0  0  0  0
  -40.7680  158.9080    1.7580 C   0  0  0  0  0  0  0  0  0  0  0  0
  -41.7670  158.2190    2.3320 F   0  0  0  0  0  0  0  0  0  0  0  0
  -41.0820  159.9020    0.8370 C   0  0  0  0  0  0  0  0  0  0  0  0
  -39.3470  160.2940   -2.4600 C   0  0  0  0  0  0  0  0  0  0  0  0
  -38.7180  160.2930   -3.6920 C   0  0  0  0  0  0  0  0  0  0  0  0
  -38.3990  161.4150   -4.3730 N   0  0  0  0  0  0  0  0  0  0  0  0
  -38.0502  165.7333   -6.2119 H   0  0  0  0  0  0  0  0  0  0  0  0
  -37.3312  164.6262   -7.4301 H   0  0  0  0  0  0  0  0  0  0  0  0
  -39.1009  164.9342   -7.4301 H   0  0  0  0  0  0  0  0  0  0  0  0
  -38.7660  162.8220   -6.2480 H   0  0  0  0  0  0  0  0  0  0  0  0
  -39.5710  163.6852   -2.0999 H   0  0  0  0  0  0  0  0  0  0  0  0
  -37.9089  160.9417    0.1316 H   0  0  0  0  0  0  0  0  0  0  0  0
  -37.3691  159.1414    1.7739 H   0  0  0  0  0  0  0  0  0  0  0  0
  -40.0940  157.1610    3.4000 H   0  0  0  0  0  0  0  0  0  0  0  0
  -39.1170  156.1860    4.9420 H   0  0  0  0  0  0  0  0  0  0  0  0
  -36.0237  156.8616    5.5552 H   0  0  0  0  0  0  0  0  0  0  0  0
  -34.2834  155.4218    6.6022 H   0  0  0  0  0  0  0  0  0  0  0  0
  -38.3637  153.3604    4.6269 H   0  0  0  0  0  0  0  0  0  0  0  0
  -42.1304  160.1239    0.5888 H   0  0  0  0  0  0  0  0  0  0  0  0
  -39.5781  159.3520   -1.9412 H   0  0  0  0  0  0  0  0  0  0  0  0
  -38.4629  159.3227   -4.1430 H   0  0  0  0  0  0  0  0  0  0  0  0
  1  2  1  0
  2  3  1  0
  3  4  2  0
  3  5  1  0
  5  6  2  0
  6  7  1  0
  7  8  1  0
  8  9  1  0
  9 10  1  0
 10 11  2  0
 11 12  1  0
 12 13  1  0
 13 14  1  0
 14 15  2  0
 14 16  1  0
 16 17  1  0
 17 18  1  0
 18 19  2  0
 19 20  1  0
 20 21  1  0
 20 22  2  0
 22 23  1  0
 23 24  1  0
 23 25  1  0
 23 26  1  0
 22 27  1  0
 12 28  2  0
 28 29  1  0
 28 30  1  0
  7 31  2  0
 31 32  1  0
 32 33  2  0
 33  5  1  0
 30  9  2  0
 27 17  2  0
  1 34  1  0
  1 35  1  0
  1 36  1  0
  2 37  1  0
  6 38  1  0
 10 39  1  0
 11 40  1  0
 13 41  1  0
 16 42  1  0
 18 43  1  0
 19 44  1  0
 27 45  1  0
 30 46  1  0
 31 47  1  0
 32 48  1  0
M  END
>  <meeko>  (3) 
{"is_sidechain": false}

>  <vina_affinity_kcal_mol>  (3) 
-11.108

>  <pose_rank>  (3) 
3

$$$$

     RDKit          3D

 48 50  0  0  0  0  0  0  0  0999 V2000
  -35.5300  168.0750  -11.3380 C   0  0  0  0  0  0  0  0  0  0  0  0
  -36.0210  166.7900  -10.9230 N   0  0  0  0  0  0  0  0  0  0  0  0
  -37.3440  166.4250  -11.0550 C   0  0  0  0  0  0  0  0  0  0  0  0
  -38.2310  167.1760  -11.4440 O   0  0  0  0  0  0  0  0  0  0  0  0
  -37.6280  164.9990  -10.6940 C   0  0  0  0  0  0  0  0  0  0  0  0
  -36.9730  164.4190   -9.6190 C   0  0  0  0  0  0  0  0  0  0  0  0
  -37.2870  163.1010   -9.3150 C   0  0  0  0  0  0  0  0  0  0  0  0
  -36.6090  162.5200   -8.2670 O   0  0  0  0  0  0  0  0  0  0  0  0
  -37.2880  162.4020   -7.0760 C   0  0  0  0  0  0  0  0  0  0  0  0
  -37.1010  163.4100   -6.1290 C   0  0  0  0  0  0  0  0  0  0  0  0
  -37.7830  163.3690   -4.9080 C   0  0  0  0  0  0  0  0  0  0  0  0
  -38.6670  162.3250   -4.6340 C   0  0  0  0  0  0  0  0  0  0  0  0
  -39.4080  162.1970   -3.4390 N   0  0  0  0  0  0  0  0  0  0  0  0
  -39.3480  161.1670   -2.5160 C   0  0  0  0  0  0  0  0  0  0  0  0
  -38.6810  160.1500   -2.6480 O   0  0  0  0  0  0  0  0  0  0  0  0
  -40.1500  161.4540   -1.4220 N   0  0  0  0  0  0  0  0  0  0  0  0
  -40.4320  160.6200   -0.3200 C   0  0  0  0  0  0  0  0  0  0  0  0
  -41.7720  160.4890    0.0550 C   0  0  0  0  0  0  0  0  0  0  0  0
  -42.1310  159.6760    1.1310 C   0  0  0  0  0  0  0  0  0  0  0  0
  -41.1540  158.9780    1.8450 C   0  0  0  0  0  0  0  0  0  0  0  0
  -41.6810  157.9950    3.1620 Cl  0  0  0  0  0  0  0  0  0  0  0  0
  -39.8070  159.0840    1.4830 C   0  0  0  0  0  0  0  0  0  0  0  0
  -38.7350  158.3380    2.2300 C   0  0  0  0  0  0  0  0  0  0  0  0
  -38.9480  156.9930    2.2640 F   0  0  0  0  0  0  0  0  0  0  0  0
  -38.6180  158.7170    3.5360 F   0  0  0  0  0  0  0  0  0  0  0  0
  -37.4940  158.5160    1.6950 F   0  0  0  0  0  0  0  0  0  0  0  0
  -39.4610  159.9110    0.3930 C   0  0  0  0  0  0  0  0  0  0  0  0
  -38.8630  161.3400   -5.6140 C   0  0  0  0  0  0  0  0  0  0  0  0
  -39.7270  160.3390   -5.3740 F   0  0  0  0  0  0  0  0  0  0  0  0
  -38.1900  161.3680   -6.8300 C   0  0  0  0  0  0  0  0  0  0  0  0
  -38.1970  162.3960  -10.1000 C   0  0  0  0  0  0  0  0  0  0  0  0
  -38.7970  163.0620  -11.1540 C   0  0  0  0  0  0  0  0  0  0  0  0
  -38.5440  164.3500  -11.4690 N   0  0  0  0  0  0  0  0  0  0  0  0
  -35.2978  168.6827  -10.4510 H   0  0  0  0  0  0  0  0  0  0  0  0
  -34.6192  167.9424  -11.9403 H   0  0  0  0  0  0  0  0  0  0  0  0
  -36.2971  168.5836  -11.9403 H   0  0  0  0  0  0  0  0  0  0  0  0
  -35.3740  166.0420  -10.6880 H   0  0  0  0  0  0  0  0  0  0  0  0
  -36.2333  164.9808   -9.0297 H   0  0  0  0  0  0  0  0  0  0  0  0
  -36.4135  164.2414   -6.3438 H   0  0  0  0  0  0  0  0  0  0  0  0
  -37.6219  164.1616   -4.1625 H   0  0  0  0  0  0  0  0  0  0  0  0
  -40.1640  162.8620   -3.3400 H   0  0  0  0  0  0  0  0  0  0  0  0
  -40.4490  162.4150   -1.3400 H   0  0  0  0  0  0  0  0  0  0  0  0
  -42.5500  161.0311   -0.5025 H   0  0  0  0  0  0  0  0  0  0  0  0
  -43.1888  159.5843    1.4184 H   0  0  0  0  0  0  0  0  0  0  0  0
  -38.4049  159.9995    0.0983 H   0  0  0  0  0  0  0  0  0  0  0  0
  -38.3662  160.5877   -7.5851 H   0  0  0  0  0  0  0  0  0  0  0  0
  -38.4312  161.3423   -9.8883 H   0  0  0  0  0  0  0  0  0  0  0  0
  -39.5218  162.5102  -11.7706 H   0  0  0  0  0  0  0  0  0  0  0  0
  1  2  1  0
  2  3  1  0
  3  4  2  0
  3  5  1  0
  5  6  2  0
  6  7  1  0
  7  8  1  0
  8  9  1  0
  9 10  1  0
 10 11  2  0
 11 12  1  0
 12 13  1  0
 13 14  1  0
 14 15  2  0
 14 16  1  0
 16 17  1  0
 17 18  1  0
 18 19  2  0
 19 20  1  0
 20 21  1  0
 20 22  2  0
 22 23  1  0
 23 24  1  0
 23 25  1  0
 23 26  1  0
 22 27  1  0
 12 28  2  0
 28 29  1  0
 28 30  1  0
  7 31  2  0
 31 32  1  0
 32 33  2  0
 33  5  1  0
 30  9  2  0
 27 17  2  0
  1 34  1  0
  1 35  1  0
  1 36  1  0
  2 37  1  0
  6 38  1  0
 10 39  1  0
 11 40  1  0
 13 41  1  0
 16 42  1  0
 18 43  1  0
 19 44  1  0
 27 45  1  0
 30 46  1  0
 31 47  1  0
 32 48  1  0
M  END
>  <meeko>  (4) 
{"is_sidechain": false}

>  <vina_affinity_kcal_mol>  (4) 
-10.853

>  <pose_rank>  (4) 
4

$$$$

     RDKit          3D

 48 50  0  0  0  0  0  0  0  0999 V2000
  -33.6670  152.7750    5.5810 C   0  0  0  0  0  0  0  0  0  0  0  0
  -34.2540  154.0100    5.1380 N   0  0  0  0  0  0  0  0  0  0  0  0
  -35.5610  154.3510    5.4160 C   0  0  0  0  0  0  0  0  0  0  0  0
  -36.3620  153.6110    5.9760 O   0  0  0  0  0  0  0  0  0  0  0  0
  -35.9400  155.7360    4.9890 C   0  0  0  0  0  0  0  0  0  0  0  0
  -37.2560  156.0180    4.6600 C   0  0  0  0  0  0  0  0  0  0  0  0
  -37.5570  157.3220    4.2900 C   0  0  0  0  0  0  0  0  0  0  0  0
  -38.8600  157.5880    3.9330 O   0  0  0  0  0  0  0  0  0  0  0  0
  -39.0730  158.0560    2.6570 C   0  0  0  0  0  0  0  0  0  0  0  0
  -40.1470  158.9270    2.4650 C   0  0  0  0  0  0  0  0  0  0  0  0
  -40.4030  159.4650    1.1990 C   0  0  0  0  0  0  0  0  0  0  0  0
  -39.5770  159.1440    0.1210 C   0  0  0  0  0  0  0  0  0  0  0  0
  -39.7450  159.6400   -1.1900 N   0  0  0  0  0  0  0  0  0  0  0  0
  -39.1010  160.7190   -1.7720 C   0  0  0  0  0  0  0  0  0  0  0  0
  -38.3300  161.4680   -1.1890 O   0  0  0  0  0  0  0  0  0  0  0  0
  -39.4550  160.8260   -3.1080 N   0  0  0  0  0  0  0  0  0  0  0  0
  -39.0910  161.8430   -4.0150 C   0  0  0  0  0  0  0  0  0  0  0  0
  -39.1800  163.1630   -3.5620 C   0  0  0  0  0  0  0  0  0  0  0  0
  -38.8300  164.2240   -4.3990 C   0  0  0  0  0  0  0  0  0  0  0  0
  -38.3820  163.9800   -5.6990 C   0  0  0  0  0  0  0  0  0  0  0  0
  -37.9710  165.3470   -6.6690 Cl  0  0  0  0  0  0  0  0  0  0  0  0
  -38.2740  162.6680   -6.1730 C   0  0  0  0  0  0  0  0  0  0  0  0
  -37.7870  162.3760   -7.5660 C   0  0  0  0  0  0  0  0  0  0  0  0
  -36.5030  162.7790   -7.7760 F   0  0  0  0  0  0  0  0  0  0  0  0
  -38.5220  162.9920   -8.5380 F   0  0  0  0  0  0  0  0  0  0  0  0
  -37.8290  161.0500   -7.8750 F   0  0  0  0  0  0  0  0  0  0  0  0
  -38.6320  161.6070   -5.3140 C   0  0  0  0  0  0  0  0  0  0  0  0
  -38.4850  158.2930    0.3450 C   0  0  0  0  0  0  0  0  0  0  0  0
  -37.6680  157.9920   -0.6780 F   0  0  0  0  0  0  0  0  0  0  0  0
  -38.2210  157.7500    1.5980 C   0  0  0  0  0  0  0  0  0  0  0  0
  -36.5500  158.2820    4.2180 C   0  0  0  0  0  0  0  0  0  0  0  0
  -35.2660  157.9030    4.5630 C   0  0  0  0  0  0  0  0  0  0  0  0
  -34.9310  156.6550    4.9560 N   0  0  0  0  0  0  0  0  0  0  0  0
  -33.6545  152.7486    6.6806 H   0  0  0  0  0  0  0  0  0  0  0  0
  -34.2598  151.9301    5.2007 H   0  0  0  0  0  0  0  0  0  0  0  0
  -32.6375  152.7012    5.2007 H   0  0  0  0  0  0  0  0  0  0  0  0
  -33.6700  154.7530    4.7630 H   0  0  0  0  0  0  0  0  0  0  0  0
  -38.0322  155.2391    4.6907 H   0  0  0  0  0  0  0  0  0  0  0  0
  -40.7953  159.1917    3.3133 H   0  0  0  0  0  0  0  0  0  0  0  0
  -41.2572  160.1425    1.0531 H   0  0  0  0  0  0  0  0  0  0  0  0
  -40.5290  159.2450   -1.6920 H   0  0  0  0  0  0  0  0  0  0  0  0
  -39.9040  160.0150   -3.5080 H   0  0  0  0  0  0  0  0  0  0  0  0
  -39.5283  163.3668   -2.5387 H   0  0  0  0  0  0  0  0  0  0  0  0
  -38.9075  165.2582   -4.0324 H   0  0  0  0  0  0  0  0  0  0  0  0
  -38.5479  160.5712   -5.6748 H   0  0  0  0  0  0  0  0  0  0  0  0
  -37.3542  157.0901    1.7502 H   0  0  0  0  0  0  0  0  0  0  0  0
  -36.7699  159.3107    3.8963 H   0  0  0  0  0  0  0  0  0  0  0  0
  -34.4711  158.6619    4.5146 H   0  0  0  0  0  0  0  0  0  0  0  0
  1  2  1  0
  2  3  1  0
  3  4  2  0
  3  5  1  0
  5  6  2  0
  6  7  1  0
  7  8  1  0
  8  9  1  0
  9 10  1  0
 10 11  2  0
 11 12  1  0
 12 13  1  0
 13 14  1  0
 14 15  2  0
 14 16  1  0
 16 17  1  0
 17 18  1  0
 18 19  2  0
 19 20  1  0
 20 21  1  0
 20 22  2  0
 22 23  1  0
 23 24  1  0
 23 25  1  0
 23 26  1  0
 22 27  1  0
 12 28  2  0
 28 29  1  0
 28 30  1  0
  7 31  2  0
 31 32  1  0
 32 33  2  0
 33  5  1  0
 30  9  2  0
 27 17  2  0
  1 34  1  0
  1 35  1  0
  1 36  1  0
  2 37  1  0
  6 38  1  0
 10 39  1  0
 11 40  1  0
 13 41  1  0
 16 42  1  0
 18 43  1  0
 19 44  1  0
 27 45  1  0
 30 46  1  0
 31 47  1  0
 32 48  1  0
M  END
>  <meeko>  (5) 
{"is_sidechain": false}

>  <vina_affinity_kcal_mol>  (5) 
-10.832

>  <pose_rank>  (5) 
5

$$$$

     RDKit          3D

 48 50  0  0  0  0  0  0  0  0999 V2000
  -37.8480  164.1200   -8.9770 C   0  0  0  0  0  0  0  0  0  0  0  0
  -38.0120  163.7010   -7.6130 N   0  0  0  0  0  0  0  0  0  0  0  0
  -38.1200  164.5980   -6.5700 C   0  0  0  0  0  0  0  0  0  0  0  0
  -37.9960  165.8120   -6.6890 O   0  0  0  0  0  0  0  0  0  0  0  0
  -38.4250  163.9670   -5.2450 C   0  0  0  0  0  0  0  0  0  0  0  0
  -38.7180  162.6140   -5.1790 C   0  0  0  0  0  0  0  0  0  0  0  0
  -38.9740  162.0760   -3.9250 C   0  0  0  0  0  0  0  0  0  0  0  0
  -39.2970  160.7390   -3.8700 O   0  0  0  0  0  0  0  0  0  0  0  0
  -39.3550  160.1640   -2.6220 C   0  0  0  0  0  0  0  0  0  0  0  0
  -38.8760  158.8590   -2.4950 C   0  0  0  0  0  0  0  0  0  0  0  0
  -38.8770  158.2240   -1.2480 C   0  0  0  0  0  0  0  0  0  0  0  0
  -39.3460  158.8970   -0.1190 C   0  0  0  0  0  0  0  0  0  0  0  0
  -39.3810  158.3490    1.1820 N   0  0  0  0  0  0  0  0  0  0  0  0
  -38.3050  157.9550    1.9600 C   0  0  0  0  0  0  0  0  0  0  0  0
  -37.1400  157.9510    1.5870 O   0  0  0  0  0  0  0  0  0  0  0  0
  -38.7380  157.5680    3.2180 N   0  0  0  0  0  0  0  0  0  0  0  0
  -37.9660  157.0140    4.2600 C   0  0  0  0  0  0  0  0  0  0  0  0
  -37.2340  157.9020    5.0540 C   0  0  0  0  0  0  0  0  0  0  0  0
  -36.4510  157.4300    6.1090 C   0  0  0  0  0  0  0  0  0  0  0  0
  -36.3930  156.0630    6.3880 C   0  0  0  0  0  0  0  0  0  0  0  0
  -35.4010  155.5620    7.7080 Cl  0  0  0  0  0  0  0  0  0  0  0  0
  -37.1230  155.1540    5.6150 C   0  0  0  0  0  0  0  0  0  0  0  0
  -37.0840  153.6770    5.8980 C   0  0  0  0  0  0  0  0  0  0  0  0
  -37.5310  153.3610    7.1450 F   0  0  0  0  0  0  0  0  0  0  0  0
  -35.8300  153.1420    5.8190 F   0  0  0  0  0  0  0  0  0  0  0  0
  -37.8360  152.9500    5.0250 F   0  0  0  0  0  0  0  0  0  0  0  0
  -37.9090  155.6480    4.5520 C   0  0  0  0  0  0  0  0  0  0  0  0
  -39.7920  160.2180   -0.2650 C   0  0  0  0  0  0  0  0  0  0  0  0
  -40.2270  160.8870    0.8160 F   0  0  0  0  0  0  0  0  0  0  0  0
  -39.7980  160.8600   -1.4990 C   0  0  0  0  0  0  0  0  0  0  0  0
  -38.9710  162.8930   -2.7970 C   0  0  0  0  0  0  0  0  0  0  0  0
  -38.6680  164.2320   -2.9650 C   0  0  0  0  0  0  0  0  0  0  0  0
  -38.3860  164.7930   -4.1600 N   0  0  0  0  0  0  0  0  0  0  0  0
  -37.4471  165.1441   -9.0003 H   0  0  0  0  0  0  0  0  0  0  0  0
  -37.1493  163.4410   -9.4877 H   0  0  0  0  0  0  0  0  0  0  0  0
  -38.8220  164.0958   -9.4877 H   0  0  0  0  0  0  0  0  0  0  0  0
  -38.2380  162.7340   -7.3930 H   0  0  0  0  0  0  0  0  0  0  0  0
  -38.7466  161.9907   -6.0849 H   0  0  0  0  0  0  0  0  0  0  0  0
  -38.4958  158.3271   -3.3796 H   0  0  0  0  0  0  0  0  0  0  0  0
  -38.5072  157.1920   -1.1575 H   0  0  0  0  0  0  0  0  0  0  0  0
  -40.3030  158.0860    1.5040 H   0  0  0  0  0  0  0  0  0  0  0  0
  -39.6780  157.8430    3.4610 H   0  0  0  0  0  0  0  0  0  0  0  0
  -37.2754  158.9813    4.8457 H   0  0  0  0  0  0  0  0  0  0  0  0
  -35.8767  158.1387    6.7238 H   0  0  0  0  0  0  0  0  0  0  0  0
  -38.4897  154.9425    3.9396 H   0  0  0  0  0  0  0  0  0  0  0  0
  -40.1466  161.8996   -1.5869 H   0  0  0  0  0  0  0  0  0  0  0  0
  -39.2028  162.4854   -1.8019 H   0  0  0  0  0  0  0  0  0  0  0  0
  -38.6561  164.8767   -2.0738 H   0  0  0  0  0  0  0  0  0  0  0  0
  1  2  1  0
  2  3  1  0
  3  4  2  0
  3  5  1  0
  5  6  2  0
  6  7  1  0
  7  8  1  0
  8  9  1  0
  9 10  1  0
 10 11  2  0
 11 12  1  0
 12 13  1  0
 13 14  1  0
 14 15  2  0
 14 16  1  0
 16 17  1  0
 17 18  1  0
 18 19  2  0
 19 20  1  0
 20 21  1  0
 20 22  2  0
 22 23  1  0
 23 24  1  0
 23 25  1  0
 23 26  1  0
 22 27  1  0
 12 28  2  0
 28 29  1  0
 28 30  1  0
  7 31  2  0
 31 32  1  0
 32 33  2  0
 33  5  1  0
 30  9  2  0
 27 17  2  0
  1 34  1  0
  1 35  1  0
  1 36  1  0
  2 37  1  0
  6 38  1  0
 10 39  1  0
 11 40  1  0
 13 41  1  0
 16 42  1  0
 18 43  1  0
 19 44  1  0
 27 45  1  0
 30 46  1  0
 31 47  1  0
 32 48  1  0
M  END
>  <meeko>  (6) 
{"is_sidechain": false}

>  <vina_affinity_kcal_mol>  (6) 
-10.704

>  <pose_rank>  (6) 
6

$$$$

     RDKit          3D

 48 50  0  0  0  0  0  0  0  0999 V2000
  -34.5440  148.5700    1.9670 C   0  0  0  0  0  0  0  0  0  0  0  0
  -34.5930  149.2900    3.2100 N   0  0  0  0  0  0  0  0  0  0  0  0
  -35.5770  149.0750    4.1520 C   0  0  0  0  0  0  0  0  0  0  0  0
  -36.5390  148.3330    3.9870 O   0  0  0  0  0  0  0  0  0  0  0  0
  -35.3740  149.8220    5.4350 C   0  0  0  0  0  0  0  0  0  0  0  0
  -34.7740  151.0710    5.4160 C   0  0  0  0  0  0  0  0  0  0  0  0
  -34.6280  151.7280    6.6300 C   0  0  0  0  0  0  0  0  0  0  0  0
  -34.0010  152.9540    6.6090 O   0  0  0  0  0  0  0  0  0  0  0  0
  -34.7480  154.0270    6.1790 C   0  0  0  0  0  0  0  0  0  0  0  0
  -34.1170  154.9520    5.3460 C   0  0  0  0  0  0  0  0  0  0  0  0
  -34.8250  156.0510    4.8480 C   0  0  0  0  0  0  0  0  0  0  0  0
  -36.1720  156.2220    5.1700 C   0  0  0  0  0  0  0  0  0  0  0  0
  -36.9750  157.2890    4.7120 N   0  0  0  0  0  0  0  0  0  0  0  0
  -37.7880  157.3120    3.5910 C   0  0  0  0  0  0  0  0  0  0  0  0
  -37.8670  156.4100    2.7690 O   0  0  0  0  0  0  0  0  0  0  0  0
  -38.4990  158.5010    3.5370 N   0  0  0  0  0  0  0  0  0  0  0  0
  -39.3540  158.9440    2.5070 C   0  0  0  0  0  0  0  0  0  0  0  0
  -40.7260  158.7480    2.6880 C   0  0  0  0  0  0  0  0  0  0  0  0
  -41.6370  159.1660    1.7160 C   0  0  0  0  0  0  0  0  0  0  0  0
  -41.1870  159.7920    0.5500 C   0  0  0  0  0  0  0  0  0  0  0  0
  -42.3770  160.2780   -0.6020 Cl  0  0  0  0  0  0  0  0  0  0  0  0
  -39.8200  160.0090    0.3500 C   0  0  0  0  0  0  0  0  0  0  0  0
  -39.3090  160.6870   -0.8920 C   0  0  0  0  0  0  0  0  0  0  0  0
  -39.7090  161.9850   -0.9930 F   0  0  0  0  0  0  0  0  0  0  0  0
  -39.7270  160.0910   -2.0470 F   0  0  0  0  0  0  0  0  0  0  0  0
  -37.9490  160.6980   -0.9690 F   0  0  0  0  0  0  0  0  0  0  0  0
  -38.9130  159.5790    1.3430 C   0  0  0  0  0  0  0  0  0  0  0  0
  -36.7920  155.2610    5.9820 C   0  0  0  0  0  0  0  0  0  0  0  0
  -38.0940  155.4000    6.2840 F   0  0  0  0  0  0  0  0  0  0  0  0
  -36.1000  154.1660    6.4860 C   0  0  0  0  0  0  0  0  0  0  0  0
  -35.0380  151.1170    7.8140 C   0  0  0  0  0  0  0  0  0  0  0  0
  -35.6240  149.8670    7.7300 C   0  0  0  0  0  0  0  0  0  0  0  0
  -35.8130  149.2030    6.5700 N   0  0  0  0  0  0  0  0  0  0  0  0
  -34.4706  147.4915    2.1706 H   0  0  0  0  0  0  0  0  0  0  0  0
  -35.4580  148.7728    1.3895 H   0  0  0  0  0  0  0  0  0  0  0  0
  -33.6659  148.8947    1.3895 H   0  0  0  0  0  0  0  0  0  0  0  0
  -33.8000  149.8490    3.5140 H   0  0  0  0  0  0  0  0  0  0  0  0
  -34.4270  151.5241    4.4756 H   0  0  0  0  0  0  0  0  0  0  0  0
  -33.0583  154.8163    5.0799 H   0  0  0  0  0  0  0  0  0  0  0  0
  -34.3186  156.7823    4.2009 H   0  0  0  0  0  0  0  0  0  0  0  0
  -36.8120  158.1700    5.1810 H   0  0  0  0  0  0  0  0  0  0  0  0
  -38.5140  159.0410    4.3890 H   0  0  0  0  0  0  0  0  0  0  0  0
  -41.0911  158.2603    3.6039 H   0  0  0  0  0  0  0  0  0  0  0  0
  -42.7139  159.0019    1.8685 H   0  0  0  0  0  0  0  0  0  0  0  0
  -37.8358  159.7475    1.1971 H   0  0  0  0  0  0  0  0  0  0  0  0
  -36.6105  153.4226    7.1159 H   0  0  0  0  0  0  0  0  0  0  0  0
  -34.8997  151.6139    8.7856 H   0  0  0  0  0  0  0  0  0  0  0  0
  -35.9552  149.3862    8.6623 H   0  0  0  0  0  0  0  0  0  0  0  0
  1  2  1  0
  2  3  1  0
  3  4  2  0
  3  5  1  0
  5  6  2  0
  6  7  1  0
  7  8  1  0
  8  9  1  0
  9 10  1  0
 10 11  2  0
 11 12  1  0
 12 13  1  0
 13 14  1  0
 14 15  2  0
 14 16  1  0
 16 17  1  0
 17 18  1  0
 18 19  2  0
 19 20  1  0
 20 21  1  0
 20 22  2  0
 22 23  1  0
 23 24  1  0
 23 25  1  0
 23 26  1  0
 22 27  1  0
 12 28  2  0
 28 29  1  0
 28 30  1  0
  7 31  2  0
 31 32  1  0
 32 33  2  0
 33  5  1  0
 30  9  2  0
 27 17  2  0
  1 34  1  0
  1 35  1  0
  1 36  1  0
  2 37  1  0
  6 38  1  0
 10 39  1  0
 11 40  1  0
 13 41  1  0
 16 42  1  0
 18 43  1  0
 19 44  1  0
 27 45  1  0
 30 46  1  0
 31 47  1  0
 32 48  1  0
M  END
>  <meeko>  (7) 
{"is_sidechain": false}

>  <vina_affinity_kcal_mol>  (7) 
-10.566

>  <pose_rank>  (7) 
7

$$$$

     RDKit          3D

 48 50  0  0  0  0  0  0  0  0999 V2000
  -34.5370  152.3630    5.3380 C   0  0  0  0  0  0  0  0  0  0  0  0
  -35.2610  153.6040    5.3210 N   0  0  0  0  0  0  0  0  0  0  0  0
  -34.6720  154.8100    5.6380 C   0  0  0  0  0  0  0  0  0  0  0  0
  -33.5220  154.9300    6.0460 O   0  0  0  0  0  0  0  0  0  0  0  0
  -35.5560  156.0010    5.4260 C   0  0  0  0  0  0  0  0  0  0  0  0
  -36.7480  155.8580    4.7350 C   0  0  0  0  0  0  0  0  0  0  0  0
  -37.5390  156.9890    4.5830 C   0  0  0  0  0  0  0  0  0  0  0  0
  -38.7060  156.8480    3.8670 O   0  0  0  0  0  0  0  0  0  0  0  0
  -38.9220  157.7440    2.8460 C   0  0  0  0  0  0  0  0  0  0  0  0
  -37.8620  157.9870    1.9720 C   0  0  0  0  0  0  0  0  0  0  0  0
  -38.0210  158.8640    0.8930 C   0  0  0  0  0  0  0  0  0  0  0  0
  -39.2480  159.4910    0.6760 C   0  0  0  0  0  0  0  0  0  0  0  0
  -39.5130  160.3830   -0.3860 N   0  0  0  0  0  0  0  0  0  0  0  0
  -38.8870  160.4350   -1.6200 C   0  0  0  0  0  0  0  0  0  0  0  0
  -37.9300  159.7460   -1.9460 O   0  0  0  0  0  0  0  0  0  0  0  0
  -39.4990  161.3780   -2.4310 N   0  0  0  0  0  0  0  0  0  0  0  0
  -39.1000  161.7950   -3.7170 C   0  0  0  0  0  0  0  0  0  0  0  0
  -38.9540  160.8040   -4.6930 C   0  0  0  0  0  0  0  0  0  0  0  0
  -38.5680  161.1390   -5.9920 C   0  0  0  0  0  0  0  0  0  0  0  0
  -38.3260  162.4720   -6.3350 C   0  0  0  0  0  0  0  0  0  0  0  0
  -37.8520  162.8010   -7.9610 Cl  0  0  0  0  0  0  0  0  0  0  0  0
  -38.4750  163.4830   -5.3800 C   0  0  0  0  0  0  0  0  0  0  0  0
  -38.2290  164.9270   -5.7240 C   0  0  0  0  0  0  0  0  0  0  0  0
  -38.9490  165.3480   -6.8000 F   0  0  0  0  0  0  0  0  0  0  0  0
  -36.9270  165.1970   -6.0340 F   0  0  0  0  0  0  0  0  0  0  0  0
  -38.5340  165.7750   -4.7020 F   0  0  0  0  0  0  0  0  0  0  0  0
  -38.8650  163.1260   -4.0710 C   0  0  0  0  0  0  0  0  0  0  0  0
  -40.3090  159.2060    1.5480 C   0  0  0  0  0  0  0  0  0  0  0  0
  -41.5030  159.7870    1.3400 F   0  0  0  0  0  0  0  0  0  0  0  0
  -40.1630  158.3390    2.6250 C   0  0  0  0  0  0  0  0  0  0  0  0
  -37.1100  158.2180    5.0810 C   0  0  0  0  0  0  0  0  0  0  0  0
  -35.9030  158.2600    5.7550 C   0  0  0  0  0  0  0  0  0  0  0  0
  -35.1150  157.1820    5.9510 N   0  0  0  0  0  0  0  0  0  0  0  0
  -34.3584  152.0569    6.3794 H   0  0  0  0  0  0  0  0  0  0  0  0
  -35.1249  151.5884    4.8238 H   0  0  0  0  0  0  0  0  0  0  0  0
  -33.5734  152.4936    4.8238 H   0  0  0  0  0  0  0  0  0  0  0  0
  -36.1840  153.6580    4.8980 H   0  0  0  0  0  0  0  0  0  0  0  0
  -37.0561  154.8859    4.3226 H   0  0  0  0  0  0  0  0  0  0  0  0
  -36.8957  157.4864    2.1319 H   0  0  0  0  0  0  0  0  0  0  0  0
  -37.1771  159.0592    0.2150 H   0  0  0  0  0  0  0  0  0  0  0  0
  -40.1250  161.1520   -0.1470 H   0  0  0  0  0  0  0  0  0  0  0  0
  -40.4070  161.6950   -2.1230 H   0  0  0  0  0  0  0  0  0  0  0  0
  -39.1449  159.7519   -4.4349 H   0  0  0  0  0  0  0  0  0  0  0  0
  -38.4537  160.3497   -6.7496 H   0  0  0  0  0  0  0  0  0  0  0  0
  -38.9866  163.9135   -3.3127 H   0  0  0  0  0  0  0  0  0  0  0  0
  -41.0121  158.1263    3.2912 H   0  0  0  0  0  0  0  0  0  0  0  0
  -37.7133  159.1273    4.9422 H   0  0  0  0  0  0  0  0  0  0  0  0
  -35.5658  159.2279    6.1544 H   0  0  0  0  0  0  0  0  0  0  0  0
  1  2  1  0
  2  3  1  0
  3  4  2  0
  3  5  1  0
  5  6  2  0
  6  7  1  0
  7  8  1  0
  8  9  1  0
  9 10  1  0
 10 11  2  0
 11 12  1  0
 12 13  1  0
 13 14  1  0
 14 15  2  0
 14 16  1  0
 16 17  1  0
 17 18  1  0
 18 19  2  0
 19 20  1  0
 20 21  1  0
 20 22  2  0
 22 23  1  0
 23 24  1  0
 23 25  1  0
 23 26  1  0
 22 27  1  0
 12 28  2  0
 28 29  1  0
 28 30  1  0
  7 31  2  0
 31 32  1  0
 32 33  2  0
 33  5  1  0
 30  9  2  0
 27 17  2  0
  1 34  1  0
  1 35  1  0
  1 36  1  0
  2 37  1  0
  6 38  1  0
 10 39  1  0
 11 40  1  0
 13 41  1  0
 16 42  1  0
 18 43  1  0
 19 44  1  0
 27 45  1  0
 30 46  1  0
 31 47  1  0
 32 48  1  0
M  END
>  <meeko>  (8) 
{"is_sidechain": false}

>  <vina_affinity_kcal_mol>  (8) 
-10.565

>  <pose_rank>  (8) 
8

$$$$

     RDKit          3D

 48 50  0  0  0  0  0  0  0  0999 V2000
  -37.7960  155.7120    4.8750 C   0  0  0  0  0  0  0  0  0  0  0  0
  -38.5560  156.6940    4.1510 N   0  0  0  0  0  0  0  0  0  0  0  0
  -37.9810  157.5390    3.2240 C   0  0  0  0  0  0  0  0  0  0  0  0
  -36.7770  157.5990    2.9980 O   0  0  0  0  0  0  0  0  0  0  0  0
  -38.9610  158.3930    2.4790 C   0  0  0  0  0  0  0  0  0  0  0  0
  -38.5250  159.5420    1.8390 C   0  0  0  0  0  0  0  0  0  0  0  0
  -39.4710  160.2860    1.1460 C   0  0  0  0  0  0  0  0  0  0  0  0
  -39.0370  161.4430    0.5400 O   0  0  0  0  0  0  0  0  0  0  0  0
  -39.0460  161.4670   -0.8350 C   0  0  0  0  0  0  0  0  0  0  0  0
  -39.0020  162.7170   -1.4540 C   0  0  0  0  0  0  0  0  0  0  0  0
  -38.9780  162.8140   -2.8500 C   0  0  0  0  0  0  0  0  0  0  0  0
  -38.9830  161.6590   -3.6330 C   0  0  0  0  0  0  0  0  0  0  0  0
  -38.9510  161.6490   -5.0450 N   0  0  0  0  0  0  0  0  0  0  0  0
  -38.1060  162.3680   -5.8730 C   0  0  0  0  0  0  0  0  0  0  0  0
  -37.2960  163.2010   -5.4910 O   0  0  0  0  0  0  0  0  0  0  0  0
  -38.3100  162.0080   -7.1970 N   0  0  0  0  0  0  0  0  0  0  0  0
  -37.7190  162.5780   -8.3430 C   0  0  0  0  0  0  0  0  0  0  0  0
  -36.9660  161.7300   -9.1610 C   0  0  0  0  0  0  0  0  0  0  0  0
  -36.3550  162.2190  -10.3170 C   0  0  0  0  0  0  0  0  0  0  0  0
  -36.4930  163.5620  -10.6750 C   0  0  0  0  0  0  0  0  0  0  0  0
  -35.7060  164.0860  -12.1180 Cl  0  0  0  0  0  0  0  0  0  0  0  0
  -37.2500  164.4290   -9.8790 C   0  0  0  0  0  0  0  0  0  0  0  0
  -37.4210  165.8780  -10.2440 C   0  0  0  0  0  0  0  0  0  0  0  0
  -37.9970  166.0550  -11.4650 F   0  0  0  0  0  0  0  0  0  0  0  0
  -36.2440  166.5680  -10.2970 F   0  0  0  0  0  0  0  0  0  0  0  0
  -38.1940  166.5610   -9.3530 F   0  0  0  0  0  0  0  0  0  0  0  0
  -37.8600  163.9180   -8.7130 C   0  0  0  0  0  0  0  0  0  0  0  0
  -38.9930  160.4140   -2.9880 C   0  0  0  0  0  0  0  0  0  0  0  0
  -38.9770  159.2920   -3.7270 F   0  0  0  0  0  0  0  0  0  0  0  0
  -39.0200  160.3040   -1.6020 C   0  0  0  0  0  0  0  0  0  0  0  0
  -40.8080  159.8950    1.1440 C   0  0  0  0  0  0  0  0  0  0  0  0
  -41.1460  158.7330    1.8140 C   0  0  0  0  0  0  0  0  0  0  0  0
  -40.2570  157.9630    2.4770 N   0  0  0  0  0  0  0  0  0  0  0  0
  -37.9218  155.8746    5.9556 H   0  0  0  0  0  0  0  0  0  0  0  0
  -38.1525  154.7052    4.6117 H   0  0  0  0  0  0  0  0  0  0  0  0
  -36.7320  155.8047    4.6117 H   0  0  0  0  0  0  0  0  0  0  0  0
  -39.5720  156.6740    4.1640 H   0  0  0  0  0  0  0  0  0  0  0  0
  -37.4706  159.8528    1.8783 H   0  0  0  0  0  0  0  0  0  0  0  0
  -38.9861  163.6306   -0.8416 H   0  0  0  0  0  0  0  0  0  0  0  0
  -38.9551  163.8030   -3.3310 H   0  0  0  0  0  0  0  0  0  0  0  0
  -39.7310  161.1750   -5.4800 H   0  0  0  0  0  0  0  0  0  0  0  0
  -38.8300  161.1550   -7.3420 H   0  0  0  0  0  0  0  0  0  0  0  0
  -36.8542  160.6694   -8.8915 H   0  0  0  0  0  0  0  0  0  0  0  0
  -35.7614  161.5427  -10.9496 H   0  0  0  0  0  0  0  0  0  0  0  0
  -38.4598  164.5899   -8.0815 H   0  0  0  0  0  0  0  0  0  0  0  0
  -39.0208  159.3156   -1.1193 H   0  0  0  0  0  0  0  0  0  0  0  0
  -41.5721  160.4924    0.6251 H   0  0  0  0  0  0  0  0  0  0  0  0
  -42.1999  158.4181    1.8062 H   0  0  0  0  0  0  0  0  0  0  0  0
  1  2  1  0
  2  3  1  0
  3  4  2  0
  3  5  1  0
  5  6  2  0
  6  7  1  0
  7  8  1  0
  8  9  1  0
  9 10  1  0
 10 11  2  0
 11 12  1  0
 12 13  1  0
 13 14  1  0
 14 15  2  0
 14 16  1  0
 16 17  1  0
 17 18  1  0
 18 19  2  0
 19 20  1  0
 20 21  1  0
 20 22  2  0
 22 23  1  0
 23 24  1  0
 23 25  1  0
 23 26  1  0
 22 27  1  0
 12 28  2  0
 28 29  1  0
 28 30  1  0
  7 31  2  0
 31 32  1  0
 32 33  2  0
 33  5  1  0
 30  9  2  0
 27 17  2  0
  1 34  1  0
  1 35  1  0
  1 36  1  0
  2 37  1  0
  6 38  1  0
 10 39  1  0
 11 40  1  0
 13 41  1  0
 16 42  1  0
 18 43  1  0
 19 44  1  0
 27 45  1  0
 30 46  1  0
 31 47  1  0
 32 48  1  0
M  END
>  <meeko>  (9) 
{"is_sidechain": false}

>  <vina_affinity_kcal_mol>  (9) 
-10.46

>  <pose_rank>  (9) 
9

$$$$

     RDKit          3D

 48 50  0  0  0  0  0  0  0  0999 V2000
  -37.9560  155.6520   -9.4970 C   0  0  0  0  0  0  0  0  0  0  0  0
  -37.8680  157.0760   -9.6730 N   0  0  0  0  0  0  0  0  0  0  0  0
  -36.6840  157.7680   -9.5260 C   0  0  0  0  0  0  0  0  0  0  0  0
  -35.6330  157.2640   -9.1470 O   0  0  0  0  0  0  0  0  0  0  0  0
  -36.7720  159.2200   -9.8870 C   0  0  0  0  0  0  0  0  0  0  0  0
  -36.5060  160.1840   -8.9280 C   0  0  0  0  0  0  0  0  0  0  0  0
  -36.5820  161.5140   -9.3200 C   0  0  0  0  0  0  0  0  0  0  0  0
  -36.3490  162.4680   -8.3550 O   0  0  0  0  0  0  0  0  0  0  0  0
  -37.0710  162.3630   -7.1890 C   0  0  0  0  0  0  0  0  0  0  0  0
  -36.8520  163.3330   -6.2110 C   0  0  0  0  0  0  0  0  0  0  0  0
  -37.5740  163.3050   -5.0130 C   0  0  0  0  0  0  0  0  0  0  0  0
  -38.5300  162.3130   -4.7940 C   0  0  0  0  0  0  0  0  0  0  0  0
  -39.3160  162.2020   -3.6260 N   0  0  0  0  0  0  0  0  0  0  0  0
  -39.2610  161.2080   -2.6640 C   0  0  0  0  0  0  0  0  0  0  0  0
  -38.5580  160.2100   -2.7320 O   0  0  0  0  0  0  0  0  0  0  0  0
  -40.1170  161.5070   -1.6150 N   0  0  0  0  0  0  0  0  0  0  0  0
  -40.4180  160.7030   -0.4960 C   0  0  0  0  0  0  0  0  0  0  0  0
  -41.7620  160.6010   -0.1260 C   0  0  0  0  0  0  0  0  0  0  0  0
  -42.1390  159.8190    0.9670 C   0  0  0  0  0  0  0  0  0  0  0  0
  -41.1770  159.1230    1.7020 C   0  0  0  0  0  0  0  0  0  0  0  0
  -41.7270  158.1790    3.0390 Cl  0  0  0  0  0  0  0  0  0  0  0  0
  -39.8260  159.2000    1.3470 C   0  0  0  0  0  0  0  0  0  0  0  0
  -38.7700  158.4550    2.1170 C   0  0  0  0  0  0  0  0  0  0  0  0
  -38.6460  158.8850    3.4030 F   0  0  0  0  0  0  0  0  0  0  0  0
  -37.5220  158.5700    1.5770 F   0  0  0  0  0  0  0  0  0  0  0  0
  -39.0070  157.1150    2.1810 F   0  0  0  0  0  0  0  0  0  0  0  0
  -39.4620  159.9960    0.2400 C   0  0  0  0  0  0  0  0  0  0  0  0
  -38.7560  161.3680   -5.8050 C   0  0  0  0  0  0  0  0  0  0  0  0
  -39.6880  160.4170   -5.6190 F   0  0  0  0  0  0  0  0  0  0  0  0
  -38.0430  161.3830   -6.9990 C   0  0  0  0  0  0  0  0  0  0  0  0
  -36.9540  161.8420  -10.6220 C   0  0  0  0  0  0  0  0  0  0  0  0
  -37.2010  160.8080  -11.5070 C   0  0  0  0  0  0  0  0  0  0  0  0
  -37.1120  159.5010  -11.1780 N   0  0  0  0  0  0  0  0  0  0  0  0
  -37.9706  155.4155   -8.4228 H   0  0  0  0  0  0  0  0  0  0  0  0
  -38.8788  155.2808   -9.9668 H   0  0  0  0  0  0  0  0  0  0  0  0
  -37.0859  155.1700   -9.9668 H   0  0  0  0  0  0  0  0  0  0  0  0
  -38.6360  157.5930  -10.0920 H   0  0  0  0  0  0  0  0  0  0  0  0
  -36.2447  159.9066   -7.8961 H   0  0  0  0  0  0  0  0  0  0  0  0
  -36.1075  164.1244   -6.3826 H   0  0  0  0  0  0  0  0  0  0  0  0
  -37.3874  164.0670   -4.2419 H   0  0  0  0  0  0  0  0  0  0  0  0
  -40.0950  162.8450   -3.5810 H   0  0  0  0  0  0  0  0  0  0  0  0
  -40.4490  162.4590   -1.5800 H   0  0  0  0  0  0  0  0  0  0  0  0
  -42.5287  161.1413   -0.7007 H   0  0  0  0  0  0  0  0  0  0  0  0
  -43.1995  159.7506    1.2509 H   0  0  0  0  0  0  0  0  0  0  0  0
  -38.4030  160.0618   -0.0503 H   0  0  0  0  0  0  0  0  0  0  0  0
  -38.2429  160.6343   -7.7797 H   0  0  0  0  0  0  0  0  0  0  0  0
  -37.0484  162.8918  -10.9367 H   0  0  0  0  0  0  0  0  0  0  0  0
  -37.4863  161.0649  -12.5378 H   0  0  0  0  0  0  0  0  0  0  0  0
  1  2  1  0
  2  3  1  0
  3  4  2  0
  3  5  1  0
  5  6  2  0
  6  7  1  0
  7  8  1  0
  8  9  1  0
  9 10  1  0
 10 11  2  0
 11 12  1  0
 12 13  1  0
 13 14  1  0
 14 15  2  0
 14 16  1  0
 16 17  1  0
 17 18  1  0
 18 19  2  0
 19 20  1  0
 20 21  1  0
 20 22  2  0
 22 23  1  0
 23 24  1  0
 23 25  1  0
 23 26  1  0
 22 27  1  0
 12 28  2  0
 28 29  1  0
 28 30  1  0
  7 31  2  0
 31 32  1  0
 32 33  2  0
 33  5  1  0
 30  9  2  0
 27 17  2  0
  1 34  1  0
  1 35  1  0
  1 36  1  0
  2 37  1  0
  6 38  1  0
 10 39  1  0
 11 40  1  0
 13 41  1  0
 16 42  1  0
 18 43  1  0
 19 44  1  0
 27 45  1  0
 30 46  1  0
 31 47  1  0
 32 48  1  0
M  END
>  <meeko>  (10) 
{"is_sidechain": false}

>  <vina_affinity_kcal_mol>  (10) 
-10.443

>  <pose_rank>  (10) 
10

$$$$
