
     RDKit          3D

 55 59  0  0  0  0  0  0  0  0999 V2000
  -39.0170  166.2200   -9.5000 O   0  0  0  0  0  0  0  0  0  0  0  0
  -37.6450  165.8980   -8.9840 S   0  0  0  0  0  4  0  0  0  0  0  0
  -36.4550  166.1350  -10.3670 C   0  0  0  0  0  0  0  0  0  0  0  0
  -36.5120  164.8870  -11.2430 C   0  0  0  0  0  0  0  0  0  0  0  0
  -36.8480  163.7530  -10.3160 C   0  0  0  0  0  0  0  0  0  0  0  0
  -36.5900  162.4780  -10.6330 N   0  0  0  0  0  0  0  0  0  0  0  0
  -37.0050  161.5440   -9.7570 C   0  0  0  0  0  0  0  0  0  0  0  0
  -36.7360  160.2210  -10.0260 N   0  0  0  0  0  0  0  0  0  0  0  0
  -36.8170  159.2440   -8.9480 C   0  0  0  0  0  0  0  0  0  0  0  0
  -35.8210  158.1120   -9.1800 C   0  0  0  0  0  0  0  0  0  0  0  0
  -36.0420  157.4240  -10.5340 C   0  0  0  0  0  0  0  0  0  0  0  0
  -34.7730  156.7180  -10.9590 C   0  0  0  0  0  0  0  0  0  0  0  0
  -33.7280  157.4690  -11.3600 N   0  0  0  0  0  0  0  0  0  0  0  0
  -32.6020  156.8070  -11.7090 C   0  0  0  0  0  0  0  0  0  0  0  0
  -32.4830  155.4390  -11.6680 C   0  0  0  0  0  0  0  0  0  0  0  0
  -31.0440  154.6320  -12.1150 Cl  0  0  0  0  0  0  0  0  0  0  0  0
  -33.6010  154.7630  -11.2390 C   0  0  0  0  0  0  0  0  0  0  0  0
  -34.7540  155.3730  -10.8770 N   0  0  0  0  0  0  0  0  0  0  0  0
  -36.5530  158.3880  -11.6180 C   0  0  0  0  0  0  0  0  0  0  0  0
  -36.1780  159.8370  -11.3160 C   0  0  0  0  0  0  0  0  0  0  0  0
  -37.6700  161.8520   -8.6210 N   0  0  0  0  0  0  0  0  0  0  0  0
  -37.9300  163.1440   -8.3340 C   0  0  0  0  0  0  0  0  0  0  0  0
  -38.6000  163.4660   -7.1320 N   0  0  0  0  0  0  0  0  0  0  0  0
  -38.1050  163.1980   -5.7970 C   0  0  0  0  0  0  0  0  0  0  0  0
  -37.1690  164.2890   -5.2620 C   0  0  0  0  0  0  0  0  0  0  0  0
  -37.8810  165.4830   -4.9490 O   0  0  0  0  0  0  0  0  0  0  0  0
  -37.4810  161.7670   -5.7630 C   0  0  0  0  0  0  0  0  0  0  0  0
  -38.2070  161.5430   -4.4220 C   0  0  0  0  0  0  0  0  0  0  0  0
  -39.2050  162.6370   -4.8470 C   0  0  0  0  0  0  0  0  0  0  0  0
  -37.5020  164.1390   -9.1740 C   0  0  0  0  0  0  0  0  0  0  0  0
  -36.7362  167.0202  -10.9563 H   0  0  0  0  0  0  0  0  0  0  0  0
  -35.4372  166.2888   -9.9791 H   0  0  0  0  0  0  0  0  0  0  0  0
  -37.2892  164.9950  -12.0140 H   0  0  0  0  0  0  0  0  0  0  0  0
  -35.5597  164.7147  -11.7659 H   0  0  0  0  0  0  0  0  0  0  0  0
  -36.5874  159.7386   -7.9927 H   0  0  0  0  0  0  0  0  0  0  0  0
  -37.8337  158.8249   -8.9221 H   0  0  0  0  0  0  0  0  0  0  0  0
  -34.8015  158.5241   -9.1527 H   0  0  0  0  0  0  0  0  0  0  0  0
  -35.9668  157.3620   -8.3886 H   0  0  0  0  0  0  0  0  0  0  0  0
  -36.8399  156.6775  -10.4071 H   0  0  0  0  0  0  0  0  0  0  0  0
  -31.7348  157.3952  -12.0437 H   0  0  0  0  0  0  0  0  0  0  0  0
  -33.5559  153.6652  -11.1871 H   0  0  0  0  0  0  0  0  0  0  0  0
  -36.1132  158.1012  -12.5846 H   0  0  0  0  0  0  0  0  0  0  0  0
  -37.6505  158.3190  -11.6448 H   0  0  0  0  0  0  0  0  0  0  0  0
  -35.0827  159.9343  -11.2860 H   0  0  0  0  0  0  0  0  0  0  0  0
  -36.5814  160.4930  -12.1015 H   0  0  0  0  0  0  0  0  0  0  0  0
  -39.5870  163.2220   -7.2310 H   0  0  0  0  0  0  0  0  0  0  0  0
  -36.6736  163.9197   -4.3520 H   0  0  0  0  0  0  0  0  0  0  0  0
  -36.4309  164.5230   -6.0433 H   0  0  0  0  0  0  0  0  0  0  0  0
  -38.6960  165.4790   -5.4950 H   0  0  0  0  0  0  0  0  0  0  0  0
  -37.8106  161.1051   -6.5774 H   0  0  0  0  0  0  0  0  0  0  0  0
  -36.3968  161.6101   -5.8630 H   0  0  0  0  0  0  0  0  0  0  0  0
  -38.6484  160.5426   -4.3022 H   0  0  0  0  0  0  0  0  0  0  0  0
  -37.6720  161.5930   -3.4622 H   0  0  0  0  0  0  0  0  0  0  0  0
  -40.1029  162.2616   -5.3597 H   0  0  0  0  0  0  0  0  0  0  0  0
  -39.7036  163.2781   -4.1051 H   0  0  0  0  0  0  0  0  0  0  0  0
  1  2  2  0
  2  3  1  6
  3  4  1  0
  4  5  1  0
  5  6  2  0
  6  7  1  0
  7  8  1  0
  8  9  1  0
  9 10  1  0
 10 11  1  0
 11 12  1  0
 12 13  2  0
 13 14  1  0
 14 15  2  0
 15 16  1  0
 15 17  1  0
 17 18  2  0
 11 19  1  0
 19 20  1  0
  7 21  2  0
 21 22  1  0
 22 23  1  0
 23 24  1  0
 24 25  1  0
 25 26  1  0
 24 27  1  0
 27 28  1  0
 28 29  1  0
 22 30  2  0
 30  2  1  0
 30  5  1  0
 20  8  1  0
 29 24  1  0
 18 12  1  0
  3 31  1  0
  3 32  1  0
  4 33  1  0
  4 34  1  0
  9 35  1  0
  9 36  1  0
 10 37  1  0
 10 38  1  0
 11 39  1  0
 14 40  1  0
 17 41  1  0
 19 42  1  0
 19 43  1  0
 20 44  1  0
 20 45  1  0
 23 46  1  0
 25 47  1  0
 25 48  1  0
 26 49  1  0
 27 50  1  0
 27 51  1  0
 28 52  1  0
 28 53  1  0
 29 54  1  0
 29 55  1  0
M  END
>  <meeko>  (1) 
{"is_sidechain": false}

>  <vina_affinity_kcal_mol>  (1) 
-8.247

>  <pose_rank>  (1) 
1

$$$$

     RDKit          3D

 55 59  0  0  0  0  0  0  0  0999 V2000
  -39.2520  166.2680   -9.1510 O   0  0  0  0  0  0  0  0  0  0  0  0
  -37.8540  166.0090   -8.6730 S   0  0  0  0  0  4  0  0  0  0  0  0
  -36.7040  166.4270  -10.0470 C   0  0  0  0  0  0  0  0  0  0  0  0
  -36.6860  165.2420  -11.0080 C   0  0  0  0  0  0  0  0  0  0  0  0
  -36.9290  164.0250  -10.1610 C   0  0  0  0  0  0  0  0  0  0  0  0
  -36.5860  162.7960  -10.5700 N   0  0  0  0  0  0  0  0  0  0  0  0
  -36.9210  161.7760   -9.7590 C   0  0  0  0  0  0  0  0  0  0  0  0
  -36.5640  160.4970  -10.1230 N   0  0  0  0  0  0  0  0  0  0  0  0
  -36.2670  160.2110  -11.5200 C   0  0  0  0  0  0  0  0  0  0  0  0
  -36.6460  158.7730  -11.8610 C   0  0  0  0  0  0  0  0  0  0  0  0
  -35.9320  157.7630  -10.9520 C   0  0  0  0  0  0  0  0  0  0  0  0
  -36.7000  156.4600  -10.9390 C   0  0  0  0  0  0  0  0  0  0  0  0
  -38.0130  156.4880  -11.2450 N   0  0  0  0  0  0  0  0  0  0  0  0
  -38.6620  155.3020  -11.2480 C   0  0  0  0  0  0  0  0  0  0  0  0
  -38.0530  154.1030  -10.9660 C   0  0  0  0  0  0  0  0  0  0  0  0
  -38.9020  152.6200  -10.9790 Cl  0  0  0  0  0  0  0  0  0  0  0  0
  -36.7110  154.1780  -10.6730 C   0  0  0  0  0  0  0  0  0  0  0  0
  -36.0110  155.3360  -10.6540 N   0  0  0  0  0  0  0  0  0  0  0  0
  -35.6950  158.3020   -9.5310 C   0  0  0  0  0  0  0  0  0  0  0  0
  -36.6850  159.4060   -9.1650 C   0  0  0  0  0  0  0  0  0  0  0  0
  -37.5890  161.9560   -8.5970 N   0  0  0  0  0  0  0  0  0  0  0  0
  -37.9360  163.2030   -8.2170 C   0  0  0  0  0  0  0  0  0  0  0  0
  -38.6090  163.3920   -6.9890 N   0  0  0  0  0  0  0  0  0  0  0  0
  -38.0710  163.0790   -5.6800 C   0  0  0  0  0  0  0  0  0  0  0  0
  -37.1450  164.1680   -5.1240 C   0  0  0  0  0  0  0  0  0  0  0  0
  -37.8460  165.3870   -4.8950 O   0  0  0  0  0  0  0  0  0  0  0  0
  -37.4160  161.6620   -5.7230 C   0  0  0  0  0  0  0  0  0  0  0  0
  -38.0990  161.3660   -4.3750 C   0  0  0  0  0  0  0  0  0  0  0  0
  -39.1320  162.4530   -4.7260 C   0  0  0  0  0  0  0  0  0  0  0  0
  -37.5910  164.2820   -8.9890 C   0  0  0  0  0  0  0  0  0  0  0  0
  -37.0556  167.3288  -10.5696 H   0  0  0  0  0  0  0  0  0  0  0  0
  -35.6940  166.6262   -9.6593 H   0  0  0  0  0  0  0  0  0  0  0  0
  -37.4795  165.3484  -11.7624 H   0  0  0  0  0  0  0  0  0  0  0  0
  -35.7311  165.1743  -11.5498 H   0  0  0  0  0  0  0  0  0  0  0  0
  -36.8395  160.8982  -12.1603 H   0  0  0  0  0  0  0  0  0  0  0  0
  -35.1886  160.3456  -11.6902 H   0  0  0  0  0  0  0  0  0  0  0  0
  -37.7329  158.6535  -11.7409 H   0  0  0  0  0  0  0  0  0  0  0  0
  -36.3381  158.5757  -12.8984 H   0  0  0  0  0  0  0  0  0  0  0  0
  -34.9299  157.5832  -11.3684 H   0  0  0  0  0  0  0  0  0  0  0  0
  -39.7352  155.2966  -11.4892 H   0  0  0  0  0  0  0  0  0  0  0  0
  -36.1771  153.2446  -10.4412 H   0  0  0  0  0  0  0  0  0  0  0  0
  -35.8049  157.4746   -8.8145 H   0  0  0  0  0  0  0  0  0  0  0  0
  -34.6817  158.7285   -9.4941 H   0  0  0  0  0  0  0  0  0  0  0  0
  -37.7090  159.0052   -9.1917 H   0  0  0  0  0  0  0  0  0  0  0  0
  -36.4657  159.7776   -8.1531 H   0  0  0  0  0  0  0  0  0  0  0  0
  -39.5740  163.0760   -7.0920 H   0  0  0  0  0  0  0  0  0  0  0  0
  -36.7151  163.8196   -4.1733 H   0  0  0  0  0  0  0  0  0  0  0  0
  -36.3557  164.3596   -5.8658 H   0  0  0  0  0  0  0  0  0  0  0  0
  -37.9030  165.5030   -3.9230 H   0  0  0  0  0  0  0  0  0  0  0  0
  -37.7538  161.0274   -6.5556 H   0  0  0  0  0  0  0  0  0  0  0  0
  -36.3319  161.5339   -5.8583 H   0  0  0  0  0  0  0  0  0  0  0  0
  -38.5148  160.3515   -4.2859 H   0  0  0  0  0  0  0  0  0  0  0  0
  -37.5387  161.3884   -3.4286 H   0  0  0  0  0  0  0  0  0  0  0  0
  -40.0351  162.0788   -5.2303 H   0  0  0  0  0  0  0  0  0  0  0  0
  -39.6241  163.0504   -3.9444 H   0  0  0  0  0  0  0  0  0  0  0  0
  1  2  2  0
  2  3  1  6
  3  4  1  0
  4  5  1  0
  5  6  2  0
  6  7  1  0
  7  8  1  0
  8  9  1  0
  9 10  1  0
 10 11  1  0
 11 12  1  0
 12 13  2  0
 13 14  1  0
 14 15  2  0
 15 16  1  0
 15 17  1  0
 17 18  2  0
 11 19  1  0
 19 20  1  0
  7 21  2  0
 21 22  1  0
 22 23  1  0
 23 24  1  0
 24 25  1  0
 25 26  1  0
 24 27  1  0
 27 28  1  0
 28 29  1  0
 22 30  2  0
 30  2  1  0
 30  5  1  0
 20  8  1  0
 29 24  1  0
 18 12  1  0
  3 31  1  0
  3 32  1  0
  4 33  1  0
  4 34  1  0
  9 35  1  0
  9 36  1  0
 10 37  1  0
 10 38  1  0
 11 39  1  0
 14 40  1  0
 17 41  1  0
 19 42  1  0
 19 43  1  0
 20 44  1  0
 20 45  1  0
 23 46  1  0
 25 47  1  0
 25 48  1  0
 26 49  1  0
 27 50  1  0
 27 51  1  0
 28 52  1  0
 28 53  1  0
 29 54  1  0
 29 55  1  0
M  END
>  <meeko>  (2) 
{"is_sidechain": false}

>  <vina_affinity_kcal_mol>  (2) 
-8.049

>  <pose_rank>  (2) 
2

$$$$

     RDKit          3D

 55 59  0  0  0  0  0  0  0  0999 V2000
  -34.1090  144.8390   -1.4370 O   0  0  0  0  0  0  0  0  0  0  0  0
  -33.0760  145.7420   -0.8290 S   0  0  0  0  0  4  0  0  0  0  0  0
  -32.2530  144.8180    0.5310 C   0  0  0  0  0  0  0  0  0  0  0  0
  -33.1620  144.8930    1.7540 C   0  0  0  0  0  0  0  0  0  0  0  0
  -33.8810  146.2070    1.6490 C   0  0  0  0  0  0  0  0  0  0  0  0
  -34.4400  146.7980    2.7140 N   0  0  0  0  0  0  0  0  0  0  0  0
  -35.1220  147.9350    2.4840 C   0  0  0  0  0  0  0  0  0  0  0  0
  -35.6900  148.5920    3.5510 N   0  0  0  0  0  0  0  0  0  0  0  0
  -37.1390  148.7280    3.6150 C   0  0  0  0  0  0  0  0  0  0  0  0
  -37.5210  150.0230    4.3260 C   0  0  0  0  0  0  0  0  0  0  0  0
  -36.9210  150.0990    5.7370 C   0  0  0  0  0  0  0  0  0  0  0  0
  -36.8540  151.5430    6.1830 C   0  0  0  0  0  0  0  0  0  0  0  0
  -35.8260  151.9220    6.9690 N   0  0  0  0  0  0  0  0  0  0  0  0
  -35.7840  153.2240    7.3290 C   0  0  0  0  0  0  0  0  0  0  0  0
  -36.7180  154.1510    6.9340 C   0  0  0  0  0  0  0  0  0  0  0  0
  -36.6360  155.7920    7.4060 Cl  0  0  0  0  0  0  0  0  0  0  0  0
  -37.7230  153.6680    6.1290 C   0  0  0  0  0  0  0  0  0  0  0  0
  -37.8150  152.3760    5.7370 N   0  0  0  0  0  0  0  0  0  0  0  0
  -35.5540  149.4020    5.8430 C   0  0  0  0  0  0  0  0  0  0  0  0
  -34.8470  149.3200    4.4910 C   0  0  0  0  0  0  0  0  0  0  0  0
  -35.2660  148.4610    1.2460 N   0  0  0  0  0  0  0  0  0  0  0  0
  -34.7050  147.8380    0.1900 C   0  0  0  0  0  0  0  0  0  0  0  0
  -34.8330  148.4060   -1.0980 N   0  0  0  0  0  0  0  0  0  0  0  0
  -36.0270  148.3670   -1.9180 C   0  0  0  0  0  0  0  0  0  0  0  0
  -36.2200  149.6240   -2.7770 C   0  0  0  0  0  0  0  0  0  0  0  0
  -35.5810  150.7580   -2.1970 O   0  0  0  0  0  0  0  0  0  0  0  0
  -37.2560  148.0330   -1.0140 C   0  0  0  0  0  0  0  0  0  0  0  0
  -37.7230  147.0520   -2.1060 C   0  0  0  0  0  0  0  0  0  0  0  0
  -36.2590  146.9770   -2.5810 C   0  0  0  0  0  0  0  0  0  0  0  0
  -33.9720  146.6950    0.3710 C   0  0  0  0  0  0  0  0  0  0  0  0
  -32.1061  143.7684    0.2364 H   0  0  0  0  0  0  0  0  0  0  0  0
  -31.2679  145.2537    0.7539 H   0  0  0  0  0  0  0  0  0  0  0  0
  -33.8816  144.0610    1.7481 H   0  0  0  0  0  0  0  0  0  0  0  0
  -32.5887  144.8187    2.6898 H   0  0  0  0  0  0  0  0  0  0  0  0
  -37.5472  148.7413    2.5936 H   0  0  0  0  0  0  0  0  0  0  0  0
  -37.5527  147.8773    4.1765 H   0  0  0  0  0  0  0  0  0  0  0  0
  -37.1519  150.8749    3.7361 H   0  0  0  0  0  0  0  0  0  0  0  0
  -38.6167  150.0507    4.4192 H   0  0  0  0  0  0  0  0  0  0  0  0
  -37.5851  149.5456    6.4172 H   0  0  0  0  0  0  0  0  0  0  0  0
  -34.9576  153.5596    7.9728 H   0  0  0  0  0  0  0  0  0  0  0  0
  -38.4954  154.3713    5.7844 H   0  0  0  0  0  0  0  0  0  0  0  0
  -34.9201  149.9678    6.5415 H   0  0  0  0  0  0  0  0  0  0  0  0
  -35.7228  148.3757    6.2010 H   0  0  0  0  0  0  0  0  0  0  0  0
  -34.6635  150.3354    4.1100 H   0  0  0  0  0  0  0  0  0  0  0  0
  -33.8870  148.7959    4.6079 H   0  0  0  0  0  0  0  0  0  0  0  0
  -33.9920  148.1920   -1.6360 H   0  0  0  0  0  0  0  0  0  0  0  0
  -35.7921  149.4442   -3.7743 H   0  0  0  0  0  0  0  0  0  0  0  0
  -37.2979  149.8330   -2.8443 H   0  0  0  0  0  0  0  0  0  0  0  0
  -34.7280  150.8730   -2.6660 H   0  0  0  0  0  0  0  0  0  0  0  0
  -37.0020  147.5606   -0.0536 H   0  0  0  0  0  0  0  0  0  0  0  0
  -37.9182  148.8228   -0.6298 H   0  0  0  0  0  0  0  0  0  0  0  0
  -38.1298  146.1035   -1.7255 H   0  0  0  0  0  0  0  0  0  0  0  0
  -38.5405  147.3057   -2.7969 H   0  0  0  0  0  0  0  0  0  0  0  0
  -35.6765  146.1565   -2.1368 H   0  0  0  0  0  0  0  0  0  0  0  0
  -36.0072  146.7959   -3.6364 H   0  0  0  0  0  0  0  0  0  0  0  0
  1  2  2  0
  2  3  1  1
  3  4  1  0
  4  5  1  0
  5  6  2  0
  6  7  1  0
  7  8  1  0
  8  9  1  0
  9 10  1  0
 10 11  1  0
 11 12  1  0
 12 13  2  0
 13 14  1  0
 14 15  2  0
 15 16  1  0
 15 17  1  0
 17 18  2  0
 11 19  1  0
 19 20  1  0
  7 21  2  0
 21 22  1  0
 22 23  1  0
 23 24  1  0
 24 25  1  0
 25 26  1  0
 24 27  1  0
 27 28  1  0
 28 29  1  0
 22 30  2  0
 30  2  1  0
 30  5  1  0
 20  8  1  0
 29 24  1  0
 18 12  1  0
  3 31  1  0
  3 32  1  0
  4 33  1  0
  4 34  1  0
  9 35  1  0
  9 36  1  0
 10 37  1  0
 10 38  1  0
 11 39  1  0
 14 40  1  0
 17 41  1  0
 19 42  1  0
 19 43  1  0
 20 44  1  0
 20 45  1  0
 23 46  1  0
 25 47  1  0
 25 48  1  0
 26 49  1  0
 27 50  1  0
 27 51  1  0
 28 52  1  0
 28 53  1  0
 29 54  1  0
 29 55  1  0
M  END
>  <meeko>  (3) 
{"is_sidechain": false}

>  <vina_affinity_kcal_mol>  (3) 
-8.02

>  <pose_rank>  (3) 
3

$$$$

     RDKit          3D

 55 59  0  0  0  0  0  0  0  0999 V2000
  -37.5320  146.6160   -2.4120 O   0  0  0  0  0  0  0  0  0  0  0  0
  -38.0510  145.8150   -1.2540 S   0  0  0  0  0  4  0  0  0  0  0  0
  -39.8770  146.0330   -1.1940 C   0  0  0  0  0  0  0  0  0  0  0  0
  -40.1600  147.3660   -0.5090 C   0  0  0  0  0  0  0  0  0  0  0  0
  -39.0350  147.5710    0.4660 C   0  0  0  0  0  0  0  0  0  0  0  0
  -39.1450  148.4020    1.5110 N   0  0  0  0  0  0  0  0  0  0  0  0
  -38.0460  148.5610    2.2720 C   0  0  0  0  0  0  0  0  0  0  0  0
  -38.1190  149.3830    3.3740 N   0  0  0  0  0  0  0  0  0  0  0  0
  -39.2160  150.3350    3.4820 C   0  0  0  0  0  0  0  0  0  0  0  0
  -38.7680  151.5800    4.2420 C   0  0  0  0  0  0  0  0  0  0  0  0
  -38.2290  151.2350    5.6370 C   0  0  0  0  0  0  0  0  0  0  0  0
  -37.3310  152.3500    6.1240 C   0  0  0  0  0  0  0  0  0  0  0  0
  -36.3580  152.0470    7.0080 N   0  0  0  0  0  0  0  0  0  0  0  0
  -35.5590  153.0630    7.4040 C   0  0  0  0  0  0  0  0  0  0  0  0
  -35.6900  154.3530    6.9500 C   0  0  0  0  0  0  0  0  0  0  0  0
  -34.6620  155.6160    7.4700 Cl  0  0  0  0  0  0  0  0  0  0  0  0
  -36.7070  154.5590    6.0470 C   0  0  0  0  0  0  0  0  0  0  0  0
  -37.5370  153.5810    5.6160 N   0  0  0  0  0  0  0  0  0  0  0  0
  -37.5250  149.8680    5.6840 C   0  0  0  0  0  0  0  0  0  0  0  0
  -37.0060  149.4450    4.3120 C   0  0  0  0  0  0  0  0  0  0  0  0
  -36.8740  147.9420    2.0010 N   0  0  0  0  0  0  0  0  0  0  0  0
  -36.7880  147.1230    0.9330 C   0  0  0  0  0  0  0  0  0  0  0  0
  -35.5710  146.4550    0.6690 N   0  0  0  0  0  0  0  0  0  0  0  0
  -34.4760  146.9850   -0.1190 C   0  0  0  0  0  0  0  0  0  0  0  0
  -34.8050  148.3160   -0.8060 C   0  0  0  0  0  0  0  0  0  0  0  0
  -35.0520  148.1400   -2.1980 O   0  0  0  0  0  0  0  0  0  0  0  0
  -33.9750  145.8800   -1.1030 C   0  0  0  0  0  0  0  0  0  0  0  0
  -32.5350  146.2760   -0.7260 C   0  0  0  0  0  0  0  0  0  0  0  0
  -33.0970  146.8410    0.5920 C   0  0  0  0  0  0  0  0  0  0  0  0
  -37.8850  146.8980    0.1430 C   0  0  0  0  0  0  0  0  0  0  0  0
  -40.2875  146.0411   -2.2145 H   0  0  0  0  0  0  0  0  0  0  0  0
  -40.3467  145.2067   -0.6403 H   0  0  0  0  0  0  0  0  0  0  0  0
  -40.1796  148.1803   -1.2483 H   0  0  0  0  0  0  0  0  0  0  0  0
  -41.1377  147.3632   -0.0050 H   0  0  0  0  0  0  0  0  0  0  0  0
  -39.5446  150.6251    2.4731 H   0  0  0  0  0  0  0  0  0  0  0  0
  -40.0454  149.8627    4.0289 H   0  0  0  0  0  0  0  0  0  0  0  0
  -37.9746  152.0810    3.6679 H   0  0  0  0  0  0  0  0  0  0  0  0
  -39.6417  152.2366    4.3666 H   0  0  0  0  0  0  0  0  0  0  0  0
  -39.0874  151.1449    6.3189 H   0  0  0  0  0  0  0  0  0  0  0  0
  -34.7608  152.8451    8.1289 H   0  0  0  0  0  0  0  0  0  0  0  0
  -36.8538  155.5756    5.6532 H   0  0  0  0  0  0  0  0  0  0  0  0
  -36.6765  149.9292    6.3814 H   0  0  0  0  0  0  0  0  0  0  0  0
  -38.2590  149.1188    6.0156 H   0  0  0  0  0  0  0  0  0  0  0  0
  -36.2667  150.1780    3.9569 H   0  0  0  0  0  0  0  0  0  0  0  0
  -36.5316  148.4554    4.3867 H   0  0  0  0  0  0  0  0  0  0  0  0
  -35.7750  145.4820    0.4360 H   0  0  0  0  0  0  0  0  0  0  0  0
  -35.7007  148.7485   -0.3363 H   0  0  0  0  0  0  0  0  0  0  0  0
  -33.9398  148.9856   -0.6918 H   0  0  0  0  0  0  0  0  0  0  0  0
  -35.2500  149.0280   -2.5650 H   0  0  0  0  0  0  0  0  0  0  0  0
  -34.2560  144.8547   -0.8204 H   0  0  0  0  0  0  0  0  0  0  0  0
  -34.3073  145.8500   -2.1512 H   0  0  0  0  0  0  0  0  0  0  0  0
  -31.8449  145.4283   -0.6028 H   0  0  0  0  0  0  0  0  0  0  0  0
  -31.9125  146.8879   -1.3954 H   0  0  0  0  0  0  0  0  0  0  0  0
  -33.0888  146.1320    1.4330 H   0  0  0  0  0  0  0  0  0  0  0  0
  -32.6216  147.6932    1.0997 H   0  0  0  0  0  0  0  0  0  0  0  0
  1  2  2  0
  2  3  1  6
  3  4  1  0
  4  5  1  0
  5  6  2  0
  6  7  1  0
  7  8  1  0
  8  9  1  0
  9 10  1  0
 10 11  1  0
 11 12  1  0
 12 13  2  0
 13 14  1  0
 14 15  2  0
 15 16  1  0
 15 17  1  0
 17 18  2  0
 11 19  1  0
 19 20  1  0
  7 21  2  0
 21 22  1  0
 22 23  1  0
 23 24  1  0
 24 25  1  0
 25 26  1  0
 24 27  1  0
 27 28  1  0
 28 29  1  0
 22 30  2  0
 30  2  1  0
 30  5  1  0
 20  8  1  0
 29 24  1  0
 18 12  1  0
  3 31  1  0
  3 32  1  0
  4 33  1  0
  4 34  1  0
  9 35  1  0
  9 36  1  0
 10 37  1  0
 10 38  1  0
 11 39  1  0
 14 40  1  0
 17 41  1  0
 19 42  1  0
 19 43  1  0
 20 44  1  0
 20 45  1  0
 23 46  1  0
 25 47  1  0
 25 48  1  0
 26 49  1  0
 27 50  1  0
 27 51  1  0
 28 52  1  0
 28 53  1  0
 29 54  1  0
 29 55  1  0
M  END
>  <meeko>  (4) 
{"is_sidechain": false}

>  <vina_affinity_kcal_mol>  (4) 
-7.919

>  <pose_rank>  (4) 
4

$$$$

     RDKit          3D

 55 59  0  0  0  0  0  0  0  0999 V2000
  -38.9680  146.2420    0.6850 O   0  0  0  0  0  0  0  0  0  0  0  0
  -38.7390  145.8250    2.1080 S   0  0  0  0  0  4  0  0  0  0  0  0
  -40.3370  145.9900    3.0050 C   0  0  0  0  0  0  0  0  0  0  0  0
  -40.5070  147.4610    3.3740 C   0  0  0  0  0  0  0  0  0  0  0  0
  -39.1180  147.9960    3.5750 C   0  0  0  0  0  0  0  0  0  0  0  0
  -38.8810  149.1060    4.2860 N   0  0  0  0  0  0  0  0  0  0  0  0
  -37.6040  149.5300    4.3340 C   0  0  0  0  0  0  0  0  0  0  0  0
  -37.3070  150.6510    5.0750 N   0  0  0  0  0  0  0  0  0  0  0  0
  -38.3390  151.6570    5.2900 C   0  0  0  0  0  0  0  0  0  0  0  0
  -37.7130  153.0440    5.4080 C   0  0  0  0  0  0  0  0  0  0  0  0
  -36.6710  153.1060    6.5330 C   0  0  0  0  0  0  0  0  0  0  0  0
  -35.7230  154.2580    6.2840 C   0  0  0  0  0  0  0  0  0  0  0  0
  -34.5720  154.3020    6.9860 N   0  0  0  0  0  0  0  0  0  0  0  0
  -33.7380  155.3320    6.7200 C   0  0  0  0  0  0  0  0  0  0  0  0
  -34.0050  156.3050    5.7880 C   0  0  0  0  0  0  0  0  0  0  0  0
  -32.9280  157.5940    5.4750 Cl  0  0  0  0  0  0  0  0  0  0  0  0
  -35.2000  156.1680    5.1210 C   0  0  0  0  0  0  0  0  0  0  0  0
  -36.0740  155.1600    5.3450 N   0  0  0  0  0  0  0  0  0  0  0  0
  -35.9210  151.7780    6.7290 C   0  0  0  0  0  0  0  0  0  0  0  0
  -35.9300  150.9250    5.4620 C   0  0  0  0  0  0  0  0  0  0  0  0
  -36.6000  148.8950    3.6870 N   0  0  0  0  0  0  0  0  0  0  0  0
  -36.8690  147.7880    2.9660 C   0  0  0  0  0  0  0  0  0  0  0  0
  -35.8140  147.1110    2.3150 N   0  0  0  0  0  0  0  0  0  0  0  0
  -34.9850  147.6620    1.2630 C   0  0  0  0  0  0  0  0  0  0  0  0
  -33.6970  148.3170    1.7800 C   0  0  0  0  0  0  0  0  0  0  0  0
  -33.9170  149.6700    2.1680 O   0  0  0  0  0  0  0  0  0  0  0  0
  -35.8530  148.6060    0.3720 C   0  0  0  0  0  0  0  0  0  0  0  0
  -35.1900  147.9610   -0.8600 C   0  0  0  0  0  0  0  0  0  0  0  0
  -34.8910  146.7310    0.0170 C   0  0  0  0  0  0  0  0  0  0  0  0
  -38.1460  147.2930    2.9100 C   0  0  0  0  0  0  0  0  0  0  0  0
  -41.1659  145.6670    2.3579 H   0  0  0  0  0  0  0  0  0  0  0  0
  -40.3409  145.3615    3.9077 H   0  0  0  0  0  0  0  0  0  0  0  0
  -41.0126  148.0037    2.5617 H   0  0  0  0  0  0  0  0  0  0  0  0
  -41.1224  147.5831    4.2775 H   0  0  0  0  0  0  0  0  0  0  0  0
  -39.0385  151.6460    4.4411 H   0  0  0  0  0  0  0  0  0  0  0  0
  -38.8737  151.4261    6.2231 H   0  0  0  0  0  0  0  0  0  0  0  0
  -37.2238  153.2959    4.4555 H   0  0  0  0  0  0  0  0  0  0  0  0
  -38.5132  153.7610    5.6437 H   0  0  0  0  0  0  0  0  0  0  0  0
  -37.2056  153.2808    7.4784 H   0  0  0  0  0  0  0  0  0  0  0  0
  -32.7937  155.3944    7.2807 H   0  0  0  0  0  0  0  0  0  0  0  0
  -35.4598  156.9209    4.3623 H   0  0  0  0  0  0  0  0  0  0  0  0
  -34.8783  151.9959    7.0034 H   0  0  0  0  0  0  0  0  0  0  0  0
  -36.4310  151.2131    7.5233 H   0  0  0  0  0  0  0  0  0  0  0  0
  -35.4214  151.4667    4.6509 H   0  0  0  0  0  0  0  0  0  0  0  0
  -35.4056  149.9770    5.6527 H   0  0  0  0  0  0  0  0  0  0  0  0
  -36.1150  146.1570    2.1060 H   0  0  0  0  0  0  0  0  0  0  0  0
  -33.3326  147.7507    2.6498 H   0  0  0  0  0  0  0  0  0  0  0  0
  -32.9557  148.3079    0.9673 H   0  0  0  0  0  0  0  0  0  0  0  0
  -33.0640  150.0070    2.5150 H   0  0  0  0  0  0  0  0  0  0  0  0
  -36.9373  148.4373    0.4484 H   0  0  0  0  0  0  0  0  0  0  0  0
  -35.8535  149.6960    0.5199 H   0  0  0  0  0  0  0  0  0  0  0  0
  -35.8742  147.7687   -1.6995 H   0  0  0  0  0  0  0  0  0  0  0  0
  -34.3954  148.4747   -1.4210 H   0  0  0  0  0  0  0  0  0  0  0  0
  -35.6583  145.9439   -0.0237 H   0  0  0  0  0  0  0  0  0  0  0  0
  -34.0081  146.0998   -0.1621 H   0  0  0  0  0  0  0  0  0  0  0  0
  1  2  2  0
  2  3  1  1
  3  4  1  0
  4  5  1  0
  5  6  2  0
  6  7  1  0
  7  8  1  0
  8  9  1  0
  9 10  1  0
 10 11  1  0
 11 12  1  0
 12 13  2  0
 13 14  1  0
 14 15  2  0
 15 16  1  0
 15 17  1  0
 17 18  2  0
 11 19  1  0
 19 20  1  0
  7 21  2  0
 21 22  1  0
 22 23  1  0
 23 24  1  0
 24 25  1  0
 25 26  1  0
 24 27  1  0
 27 28  1  0
 28 29  1  0
 22 30  2  0
 30  2  1  0
 30  5  1  0
 20  8  1  0
 29 24  1  0
 18 12  1  0
  3 31  1  0
  3 32  1  0
  4 33  1  0
  4 34  1  0
  9 35  1  0
  9 36  1  0
 10 37  1  0
 10 38  1  0
 11 39  1  0
 14 40  1  0
 17 41  1  0
 19 42  1  0
 19 43  1  0
 20 44  1  0
 20 45  1  0
 23 46  1  0
 25 47  1  0
 25 48  1  0
 26 49  1  0
 27 50  1  0
 27 51  1  0
 28 52  1  0
 28 53  1  0
 29 54  1  0
 29 55  1  0
M  END
>  <meeko>  (5) 
{"is_sidechain": false}

>  <vina_affinity_kcal_mol>  (5) 
-7.87

>  <pose_rank>  (5) 
5

$$$$

     RDKit          3D

 55 59  0  0  0  0  0  0  0  0999 V2000
  -33.4280  149.7260   10.1980 O   0  0  0  0  0  0  0  0  0  0  0  0
  -34.8830  149.9440    9.9020 S   0  0  0  0  0  4  0  0  0  0  0  0
  -35.7910  148.4260   10.4050 C   0  0  0  0  0  0  0  0  0  0  0  0
  -35.6300  147.4010    9.2870 C   0  0  0  0  0  0  0  0  0  0  0  0
  -35.5150  148.1960    8.0170 C   0  0  0  0  0  0  0  0  0  0  0  0
  -35.7660  147.6570    6.8170 N   0  0  0  0  0  0  0  0  0  0  0  0
  -35.5560  148.4460    5.7470 C   0  0  0  0  0  0  0  0  0  0  0  0
  -35.8280  147.9450    4.4940 N   0  0  0  0  0  0  0  0  0  0  0  0
  -34.9910  146.8810    3.9550 C   0  0  0  0  0  0  0  0  0  0  0  0
  -34.9070  146.9880    2.4350 C   0  0  0  0  0  0  0  0  0  0  0  0
  -36.2950  146.9500    1.7820 C   0  0  0  0  0  0  0  0  0  0  0  0
  -36.2270  147.5790    0.4080 C   0  0  0  0  0  0  0  0  0  0  0  0
  -36.7690  146.9100   -0.6290 N   0  0  0  0  0  0  0  0  0  0  0  0
  -36.7120  147.5130   -1.8380 C   0  0  0  0  0  0  0  0  0  0  0  0
  -36.1450  148.7470   -2.0450 C   0  0  0  0  0  0  0  0  0  0  0  0
  -36.0900  149.4820   -3.5870 Cl  0  0  0  0  0  0  0  0  0  0  0  0
  -35.6250  149.3510   -0.9240 C   0  0  0  0  0  0  0  0  0  0  0  0
  -35.6540  148.7960    0.3090 N   0  0  0  0  0  0  0  0  0  0  0  0
  -37.3840  147.5960    2.6540 C   0  0  0  0  0  0  0  0  0  0  0  0
  -36.8030  148.6090    3.6390 C   0  0  0  0  0  0  0  0  0  0  0  0
  -35.0950  149.7130    5.8530 N   0  0  0  0  0  0  0  0  0  0  0  0
  -34.8360  150.2250    7.0730 C   0  0  0  0  0  0  0  0  0  0  0  0
  -34.3820  151.5590    7.1820 N   0  0  0  0  0  0  0  0  0  0  0  0
  -34.8890  152.6840    6.4230 C   0  0  0  0  0  0  0  0  0  0  0  0
  -33.9400  153.1460    5.3100 C   0  0  0  0  0  0  0  0  0  0  0  0
  -33.7280  152.1220    4.3420 O   0  0  0  0  0  0  0  0  0  0  0  0
  -35.2980  153.8230    7.4100 C   0  0  0  0  0  0  0  0  0  0  0  0
  -36.5800  154.0080    6.5770 C   0  0  0  0  0  0  0  0  0  0  0  0
  -36.4060  152.5560    6.0940 C   0  0  0  0  0  0  0  0  0  0  0  0
  -35.0630  149.4780    8.1990 C   0  0  0  0  0  0  0  0  0  0  0  0
  -35.3699  148.0297   11.3408 H   0  0  0  0  0  0  0  0  0  0  0  0
  -36.8547  148.6500   10.5737 H   0  0  0  0  0  0  0  0  0  0  0  0
  -34.7227  146.7998    9.4462 H   0  0  0  0  0  0  0  0  0  0  0  0
  -36.4792  146.7026    9.2523 H   0  0  0  0  0  0  0  0  0  0  0  0
  -33.9801  146.9644    4.3806 H   0  0  0  0  0  0  0  0  0  0  0  0
  -35.4340  145.9097    4.2202 H   0  0  0  0  0  0  0  0  0  0  0  0
  -34.4158  147.9364    2.1717 H   0  0  0  0  0  0  0  0  0  0  0  0
  -34.3314  146.1273    2.0636 H   0  0  0  0  0  0  0  0  0  0  0  0
  -36.5905  145.8955    1.6786 H   0  0  0  0  0  0  0  0  0  0  0  0
  -37.1430  146.9869   -2.7026 H   0  0  0  0  0  0  0  0  0  0  0  0
  -35.1593  150.3412   -1.0367 H   0  0  0  0  0  0  0  0  0  0  0  0
  -38.1042  148.1095    2.0001 H   0  0  0  0  0  0  0  0  0  0  0  0
  -37.8713  146.7989    3.2346 H   0  0  0  0  0  0  0  0  0  0  0  0
  -36.3116  149.4214    3.0835 H   0  0  0  0  0  0  0  0  0  0  0  0
  -37.6111  149.0268    4.2573 H   0  0  0  0  0  0  0  0  0  0  0  0
  -33.3620  151.5550    7.2270 H   0  0  0  0  0  0  0  0  0  0  0  0
  -34.3759  154.0241    4.8110 H   0  0  0  0  0  0  0  0  0  0  0  0
  -32.9702  153.3941    5.7661 H   0  0  0  0  0  0  0  0  0  0  0  0
  -33.9340  151.2700    4.7820 H   0  0  0  0  0  0  0  0  0  0  0  0
  -35.4691  153.4916    8.4448 H   0  0  0  0  0  0  0  0  0  0  0  0
  -34.6254  154.6664    7.6251 H   0  0  0  0  0  0  0  0  0  0  0  0
  -37.4890  154.1870    7.1700 H   0  0  0  0  0  0  0  0  0  0  0  0
  -36.6902  154.8414    5.8675 H   0  0  0  0  0  0  0  0  0  0  0  0
  -36.9421  151.8073    6.6957 H   0  0  0  0  0  0  0  0  0  0  0  0
  -36.7525  152.2367    5.1000 H   0  0  0  0  0  0  0  0  0  0  0  0
  1  2  2  0
  2  3  1  1
  3  4  1  0
  4  5  1  0
  5  6  2  0
  6  7  1  0
  7  8  1  0
  8  9  1  0
  9 10  1  0
 10 11  1  0
 11 12  1  0
 12 13  2  0
 13 14  1  0
 14 15  2  0
 15 16  1  0
 15 17  1  0
 17 18  2  0
 11 19  1  0
 19 20  1  0
  7 21  2  0
 21 22  1  0
 22 23  1  0
 23 24  1  0
 24 25  1  0
 25 26  1  0
 24 27  1  0
 27 28  1  0
 28 29  1  0
 22 30  2  0
 30  2  1  0
 30  5  1  0
 20  8  1  0
 29 24  1  0
 18 12  1  0
  3 31  1  0
  3 32  1  0
  4 33  1  0
  4 34  1  0
  9 35  1  0
  9 36  1  0
 10 37  1  0
 10 38  1  0
 11 39  1  0
 14 40  1  0
 17 41  1  0
 19 42  1  0
 19 43  1  0
 20 44  1  0
 20 45  1  0
 23 46  1  0
 25 47  1  0
 25 48  1  0
 26 49  1  0
 27 50  1  0
 27 51  1  0
 28 52  1  0
 28 53  1  0
 29 54  1  0
 29 55  1  0
M  END
>  <meeko>  (6) 
{"is_sidechain": false}

>  <vina_affinity_kcal_mol>  (6) 
-7.638

>  <pose_rank>  (6) 
6

$$$$

     RDKit          3D

 55 59  0  0  0  0  0  0  0  0999 V2000
  -35.1550  165.1810  -10.7360 O   0  0  0  0  0  0  0  0  0  0  0  0
  -36.5830  164.7570  -10.9190 S   0  0  0  0  0  4  0  0  0  0  0  0
  -37.6450  166.2390  -10.6690 C   0  0  0  0  0  0  0  0  0  0  0  0
  -37.8080  166.4390   -9.1650 C   0  0  0  0  0  0  0  0  0  0  0  0
  -37.7450  165.0650   -8.5610 C   0  0  0  0  0  0  0  0  0  0  0  0
  -38.2440  164.8010   -7.3460 N   0  0  0  0  0  0  0  0  0  0  0  0
  -38.0620  163.5520   -6.8780 C   0  0  0  0  0  0  0  0  0  0  0  0
  -38.5830  163.2250   -5.6470 N   0  0  0  0  0  0  0  0  0  0  0  0
  -38.5840  164.2230   -4.5860 C   0  0  0  0  0  0  0  0  0  0  0  0
  -38.4480  163.5510   -3.2230 C   0  0  0  0  0  0  0  0  0  0  0  0
  -39.5590  162.5210   -2.9800 C   0  0  0  0  0  0  0  0  0  0  0  0
  -39.1130  161.5310   -1.9270 C   0  0  0  0  0  0  0  0  0  0  0  0
  -39.2000  161.8930   -0.6310 N   0  0  0  0  0  0  0  0  0  0  0  0
  -38.8150  160.9740    0.2830 C   0  0  0  0  0  0  0  0  0  0  0  0
  -38.3580  159.7210   -0.0450 C   0  0  0  0  0  0  0  0  0  0  0  0
  -37.8800  158.5820    1.1360 Cl  0  0  0  0  0  0  0  0  0  0  0  0
  -38.3130  159.4460   -1.3920 C   0  0  0  0  0  0  0  0  0  0  0  0
  -38.6840  160.3250   -2.3510 N   0  0  0  0  0  0  0  0  0  0  0  0
  -40.0160  161.8190   -4.2700 C   0  0  0  0  0  0  0  0  0  0  0  0
  -38.9340  161.8430   -5.3480 C   0  0  0  0  0  0  0  0  0  0  0  0
  -37.3930  162.6030   -7.5720 N   0  0  0  0  0  0  0  0  0  0  0  0
  -36.8870  162.9010   -8.7860 C   0  0  0  0  0  0  0  0  0  0  0  0
  -36.2140  161.9000   -9.5210 N   0  0  0  0  0  0  0  0  0  0  0  0
  -36.8490  160.8090  -10.2330 C   0  0  0  0  0  0  0  0  0  0  0  0
  -36.6940  159.4520   -9.5340 C   0  0  0  0  0  0  0  0  0  0  0  0
  -35.5970  158.7120  -10.0630 O   0  0  0  0  0  0  0  0  0  0  0  0
  -36.3550  160.8100  -11.7140 C   0  0  0  0  0  0  0  0  0  0  0  0
  -37.8160  160.5740  -12.1430 C   0  0  0  0  0  0  0  0  0  0  0  0
  -38.2490  161.1920  -10.8000 C   0  0  0  0  0  0  0  0  0  0  0  0
  -37.0720  164.1480   -9.3250 C   0  0  0  0  0  0  0  0  0  0  0  0
  -37.1668  167.1232  -11.1157 H   0  0  0  0  0  0  0  0  0  0  0  0
  -38.6246  166.0987  -11.1493 H   0  0  0  0  0  0  0  0  0  0  0  0
  -36.9957  167.0680   -8.7718 H   0  0  0  0  0  0  0  0  0  0  0  0
  -38.7546  166.9446   -8.9237 H   0  0  0  0  0  0  0  0  0  0  0  0
  -37.7399  164.9122   -4.7360 H   0  0  0  0  0  0  0  0  0  0  0  0
  -39.5342  164.7762   -4.6176 H   0  0  0  0  0  0  0  0  0  0  0  0
  -37.4741  163.0422   -3.1729 H   0  0  0  0  0  0  0  0  0  0  0  0
  -38.5290  164.3289   -2.4495 H   0  0  0  0  0  0  0  0  0  0  0  0
  -40.4440  163.0600   -2.6111 H   0  0  0  0  0  0  0  0  0  0  0  0
  -38.8708  161.2447    1.3477 H   0  0  0  0  0  0  0  0  0  0  0  0
  -37.9549  158.4549   -1.7073 H   0  0  0  0  0  0  0  0  0  0  0  0
  -40.2621  160.7725   -4.0369 H   0  0  0  0  0  0  0  0  0  0  0  0
  -40.8938  162.3571   -4.6573 H   0  0  0  0  0  0  0  0  0  0  0  0
  -38.0435  161.3076   -4.9869 H   0  0  0  0  0  0  0  0  0  0  0  0
  -39.3098  161.3530   -6.2583 H   0  0  0  0  0  0  0  0  0  0  0  0
  -35.4050  161.5860   -8.9830 H   0  0  0  0  0  0  0  0  0  0  0  0
  -36.5261  159.6207   -8.4601 H   0  0  0  0  0  0  0  0  0  0  0  0
  -37.6133  158.8716   -9.7014 H   0  0  0  0  0  0  0  0  0  0  0  0
  -35.9290  158.2400  -10.8560 H   0  0  0  0  0  0  0  0  0  0  0  0
  -35.9278  161.7654  -12.0527 H   0  0  0  0  0  0  0  0  0  0  0  0
  -35.5433  160.1479  -12.0496 H   0  0  0  0  0  0  0  0  0  0  0  0
  -38.1297  161.1429  -13.0306 H   0  0  0  0  0  0  0  0  0  0  0  0
  -38.1696  159.5820  -12.4608 H   0  0  0  0  0  0  0  0  0  0  0  0
  -38.4462  162.2735  -10.8375 H   0  0  0  0  0  0  0  0  0  0  0  0
  -39.1765  160.8802  -10.2974 H   0  0  0  0  0  0  0  0  0  0  0  0
  1  2  2  0
  2  3  1  1
  3  4  1  0
  4  5  1  0
  5  6  2  0
  6  7  1  0
  7  8  1  0
  8  9  1  0
  9 10  1  0
 10 11  1  0
 11 12  1  0
 12 13  2  0
 13 14  1  0
 14 15  2  0
 15 16  1  0
 15 17  1  0
 17 18  2  0
 11 19  1  0
 19 20  1  0
  7 21  2  0
 21 22  1  0
 22 23  1  0
 23 24  1  0
 24 25  1  0
 25 26  1  0
 24 27  1  0
 27 28  1  0
 28 29  1  0
 22 30  2  0
 30  2  1  0
 30  5  1  0
 20  8  1  0
 29 24  1  0
 18 12  1  0
  3 31  1  0
  3 32  1  0
  4 33  1  0
  4 34  1  0
  9 35  1  0
  9 36  1  0
 10 37  1  0
 10 38  1  0
 11 39  1  0
 14 40  1  0
 17 41  1  0
 19 42  1  0
 19 43  1  0
 20 44  1  0
 20 45  1  0
 23 46  1  0
 25 47  1  0
 25 48  1  0
 26 49  1  0
 27 50  1  0
 27 51  1  0
 28 52  1  0
 28 53  1  0
 29 54  1  0
 29 55  1  0
M  END
>  <meeko>  (7) 
{"is_sidechain": false}

>  <vina_affinity_kcal_mol>  (7) 
-7.506

>  <pose_rank>  (7) 
7

$$$$

     RDKit          3D

 55 59  0  0  0  0  0  0  0  0999 V2000
  -33.5410  145.0690   -1.9270 O   0  0  0  0  0  0  0  0  0  0  0  0
  -32.6360  146.0020   -1.1770 S   0  0  0  0  0  4  0  0  0  0  0  0
  -31.6380  144.9940   -0.0050 C   0  0  0  0  0  0  0  0  0  0  0  0
  -32.5050  144.7160    1.2180 C   0  0  0  0  0  0  0  0  0  0  0  0
  -33.4170  145.9020    1.3510 C   0  0  0  0  0  0  0  0  0  0  0  0
  -34.0220  146.2070    2.5070 N   0  0  0  0  0  0  0  0  0  0  0  0
  -34.8740  147.2480    2.4850 C   0  0  0  0  0  0  0  0  0  0  0  0
  -35.4980  147.6160    3.6550 N   0  0  0  0  0  0  0  0  0  0  0  0
  -36.3450  148.8010    3.6690 C   0  0  0  0  0  0  0  0  0  0  0  0
  -36.3070  149.4660    5.0420 C   0  0  0  0  0  0  0  0  0  0  0  0
  -36.7310  148.5010    6.1570 C   0  0  0  0  0  0  0  0  0  0  0  0
  -36.1850  148.9830    7.4820 C   0  0  0  0  0  0  0  0  0  0  0  0
  -35.5640  150.1800    7.5210 N   0  0  0  0  0  0  0  0  0  0  0  0
  -35.1100  150.5900    8.7260 C   0  0  0  0  0  0  0  0  0  0  0  0
  -35.2560  149.8610    9.8810 C   0  0  0  0  0  0  0  0  0  0  0  0
  -34.6710  150.4090   11.3910 Cl  0  0  0  0  0  0  0  0  0  0  0  0
  -35.9080  148.6580    9.7390 C   0  0  0  0  0  0  0  0  0  0  0  0
  -36.3830  148.1960    8.5590 N   0  0  0  0  0  0  0  0  0  0  0  0
  -36.3330  147.0430    5.8690 C   0  0  0  0  0  0  0  0  0  0  0  0
  -35.1520  146.9530    4.9060 C   0  0  0  0  0  0  0  0  0  0  0  0
  -35.1380  147.9520    1.3600 N   0  0  0  0  0  0  0  0  0  0  0  0
  -34.5260  147.6140    0.2070 C   0  0  0  0  0  0  0  0  0  0  0  0
  -34.7810  148.3700   -0.9600 N   0  0  0  0  0  0  0  0  0  0  0  0
  -36.0030  148.3270   -1.7370 C   0  0  0  0  0  0  0  0  0  0  0  0
  -36.1950  149.5520   -2.6410 C   0  0  0  0  0  0  0  0  0  0  0  0
  -35.6210  150.7230   -2.0670 O   0  0  0  0  0  0  0  0  0  0  0  0
  -37.2080  148.0630   -0.7780 C   0  0  0  0  0  0  0  0  0  0  0  0
  -37.7360  147.0500   -1.8110 C   0  0  0  0  0  0  0  0  0  0  0  0
  -36.2920  146.9170   -2.3320 C   0  0  0  0  0  0  0  0  0  0  0  0
  -33.6240  146.5830    0.1790 C   0  0  0  0  0  0  0  0  0  0  0  0
  -31.3453  144.0463   -0.4805 H   0  0  0  0  0  0  0  0  0  0  0  0
  -30.7228  145.5313    0.2843 H   0  0  0  0  0  0  0  0  0  0  0  0
  -33.0910  143.7967    1.0712 H   0  0  0  0  0  0  0  0  0  0  0  0
  -31.8953  144.5706    2.1220 H   0  0  0  0  0  0  0  0  0  0  0  0
  -35.9850  149.5127    2.9115 H   0  0  0  0  0  0  0  0  0  0  0  0
  -37.3799  148.5025    3.4457 H   0  0  0  0  0  0  0  0  0  0  0  0
  -35.2819  149.8116    5.2415 H   0  0  0  0  0  0  0  0  0  0  0  0
  -37.0146  150.3081    5.0326 H   0  0  0  0  0  0  0  0  0  0  0  0
  -37.8300  148.5009    6.2030 H   0  0  0  0  0  0  0  0  0  0  0  0
  -34.5955  151.5604    8.7851 H   0  0  0  0  0  0  0  0  0  0  0  0
  -36.0514  148.0365   10.6352 H   0  0  0  0  0  0  0  0  0  0  0  0
  -36.0570  146.5563    6.8161 H   0  0  0  0  0  0  0  0  0  0  0  0
  -37.1929  146.5419    5.4004 H   0  0  0  0  0  0  0  0  0  0  0  0
  -34.2756  147.4455    5.3525 H   0  0  0  0  0  0  0  0  0  0  0  0
  -34.9165  145.8965    4.7099 H   0  0  0  0  0  0  0  0  0  0  0  0
  -33.9500  148.3490   -1.5520 H   0  0  0  0  0  0  0  0  0  0  0  0
  -35.7149  149.3581   -3.6115 H   0  0  0  0  0  0  0  0  0  0  0  0
  -37.2747  149.7230   -2.7638 H   0  0  0  0  0  0  0  0  0  0  0  0
  -35.7270  150.6430   -1.0950 H   0  0  0  0  0  0  0  0  0  0  0  0
  -36.9323  147.6247    0.1925 H   0  0  0  0  0  0  0  0  0  0  0  0
  -37.8370  148.8849   -0.4054 H   0  0  0  0  0  0  0  0  0  0  0  0
  -38.1524  146.1290   -1.3770 H   0  0  0  0  0  0  0  0  0  0  0  0
  -38.5705  147.2961   -2.4841 H   0  0  0  0  0  0  0  0  0  0  0  0
  -35.7145  146.1008   -1.8733 H   0  0  0  0  0  0  0  0  0  0  0  0
  -36.0818  146.6855   -3.3866 H   0  0  0  0  0  0  0  0  0  0  0  0
  1  2  2  0
  2  3  1  1
  3  4  1  0
  4  5  1  0
  5  6  2  0
  6  7  1  0
  7  8  1  0
  8  9  1  0
  9 10  1  0
 10 11  1  0
 11 12  1  0
 12 13  2  0
 13 14  1  0
 14 15  2  0
 15 16  1  0
 15 17  1  0
 17 18  2  0
 11 19  1  0
 19 20  1  0
  7 21  2  0
 21 22  1  0
 22 23  1  0
 23 24  1  0
 24 25  1  0
 25 26  1  0
 24 27  1  0
 27 28  1  0
 28 29  1  0
 22 30  2  0
 30  2  1  0
 30  5  1  0
 20  8  1  0
 29 24  1  0
 18 12  1  0
  3 31  1  0
  3 32  1  0
  4 33  1  0
  4 34  1  0
  9 35  1  0
  9 36  1  0
 10 37  1  0
 10 38  1  0
 11 39  1  0
 14 40  1  0
 17 41  1  0
 19 42  1  0
 19 43  1  0
 20 44  1  0
 20 45  1  0
 23 46  1  0
 25 47  1  0
 25 48  1  0
 26 49  1  0
 27 50  1  0
 27 51  1  0
 28 52  1  0
 28 53  1  0
 29 54  1  0
 29 55  1  0
M  END
>  <meeko>  (8) 
{"is_sidechain": false}

>  <vina_affinity_kcal_mol>  (8) 
-7.444

>  <pose_rank>  (8) 
8

$$$$

     RDKit          3D

 55 59  0  0  0  0  0  0  0  0999 V2000
  -37.3810  165.2450   -6.2850 O   0  0  0  0  0  0  0  0  0  0  0  0
  -38.5700  164.3670   -6.5480 S   0  0  0  0  0  4  0  0  0  0  0  0
  -38.6410  163.1030   -5.2140 C   0  0  0  0  0  0  0  0  0  0  0  0
  -37.6450  162.0040   -5.5670 C   0  0  0  0  0  0  0  0  0  0  0  0
  -37.6000  161.9590   -7.0680 C   0  0  0  0  0  0  0  0  0  0  0  0
  -37.1640  160.8820   -7.7340 N   0  0  0  0  0  0  0  0  0  0  0  0
  -37.0980  160.9870   -9.0740 C   0  0  0  0  0  0  0  0  0  0  0  0
  -36.6830  159.8960   -9.8030 N   0  0  0  0  0  0  0  0  0  0  0  0
  -37.0110  159.8190  -11.2200 C   0  0  0  0  0  0  0  0  0  0  0  0
  -37.1840  158.3650  -11.6480 C   0  0  0  0  0  0  0  0  0  0  0  0
  -35.9320  157.5290  -11.3500 C   0  0  0  0  0  0  0  0  0  0  0  0
  -36.3050  156.0650  -11.2750 C   0  0  0  0  0  0  0  0  0  0  0  0
  -35.3240  155.1650  -11.0620 N   0  0  0  0  0  0  0  0  0  0  0  0
  -35.6970  153.8680  -10.9760 C   0  0  0  0  0  0  0  0  0  0  0  0
  -36.9980  153.4430  -11.0890 C   0  0  0  0  0  0  0  0  0  0  0  0
  -37.4370  151.7950  -10.9750 Cl  0  0  0  0  0  0  0  0  0  0  0  0
  -37.9260  154.4370  -11.2990 C   0  0  0  0  0  0  0  0  0  0  0  0
  -37.6110  155.7500  -11.3930 N   0  0  0  0  0  0  0  0  0  0  0  0
  -35.1880  157.9960  -10.0880 C   0  0  0  0  0  0  0  0  0  0  0  0
  -36.1090  158.7420   -9.1240 C   0  0  0  0  0  0  0  0  0  0  0  0
  -37.4290  162.1200   -9.7340 N   0  0  0  0  0  0  0  0  0  0  0  0
  -37.8510  163.1950   -9.0380 C   0  0  0  0  0  0  0  0  0  0  0  0
  -38.2240  164.3680   -9.7320 N   0  0  0  0  0  0  0  0  0  0  0  0
  -37.3080  165.3560  -10.2650 C   0  0  0  0  0  0  0  0  0  0  0  0
  -37.5900  166.7810   -9.7720 C   0  0  0  0  0  0  0  0  0  0  0  0
  -37.0640  166.9960   -8.4650 O   0  0  0  0  0  0  0  0  0  0  0  0
  -37.2700  165.2290  -11.8220 C   0  0  0  0  0  0  0  0  0  0  0  0
  -35.7380  165.3600  -11.7400 C   0  0  0  0  0  0  0  0  0  0  0  0
  -35.8310  164.8600  -10.2860 C   0  0  0  0  0  0  0  0  0  0  0  0
  -37.9680  163.1330   -7.6740 C   0  0  0  0  0  0  0  0  0  0  0  0
  -38.3704  163.5591   -4.2503 H   0  0  0  0  0  0  0  0  0  0  0  0
  -39.6569  162.6902   -5.1265 H   0  0  0  0  0  0  0  0  0  0  0  0
  -36.6510  162.2430   -5.1610 H   0  0  0  0  0  0  0  0  0  0  0  0
  -37.9442  161.0347   -5.1417 H   0  0  0  0  0  0  0  0  0  0  0  0
  -37.9477  160.3652  -11.4053 H   0  0  0  0  0  0  0  0  0  0  0  0
  -36.1910  160.2666  -11.8007 H   0  0  0  0  0  0  0  0  0  0  0  0
  -38.0376  157.9334  -11.1049 H   0  0  0  0  0  0  0  0  0  0  0  0
  -37.3558  158.3471  -12.7344 H   0  0  0  0  0  0  0  0  0  0  0  0
  -35.2232  157.6753  -12.1784 H   0  0  0  0  0  0  0  0  0  0  0  0
  -34.9159  153.1123  -10.8063 H   0  0  0  0  0  0  0  0  0  0  0  0
  -38.9830  154.1484  -11.3959 H   0  0  0  0  0  0  0  0  0  0  0  0
  -34.7735  157.1162   -9.5740 H   0  0  0  0  0  0  0  0  0  0  0  0
  -34.3908  158.6869  -10.3996 H   0  0  0  0  0  0  0  0  0  0  0  0
  -36.9158  158.0713   -8.7933 H   0  0  0  0  0  0  0  0  0  0  0  0
  -35.5328  159.0779   -8.2492 H   0  0  0  0  0  0  0  0  0  0  0  0
  -39.0120  164.8000   -9.2470 H   0  0  0  0  0  0  0  0  0  0  0  0
  -37.1264  167.4975  -10.4660 H   0  0  0  0  0  0  0  0  0  0  0  0
  -38.6801  166.9228   -9.7326 H   0  0  0  0  0  0  0  0  0  0  0  0
  -36.1080  166.7810   -8.5050 H   0  0  0  0  0  0  0  0  0  0  0  0
  -37.6260  164.2635  -12.2106 H   0  0  0  0  0  0  0  0  0  0  0  0
  -37.8694  165.8881  -12.4672 H   0  0  0  0  0  0  0  0  0  0  0  0
  -35.1850  164.6936  -12.4183 H   0  0  0  0  0  0  0  0  0  0  0  0
  -35.2264  166.3002  -11.9937 H   0  0  0  0  0  0  0  0  0  0  0  0
  -35.7129  163.7727  -10.1687 H   0  0  0  0  0  0  0  0  0  0  0  0
  -35.1075  165.1805   -9.5219 H   0  0  0  0  0  0  0  0  0  0  0  0
  1  2  2  0
  2  3  1  1
  3  4  1  0
  4  5  1  0
  5  6  2  0
  6  7  1  0
  7  8  1  0
  8  9  1  0
  9 10  1  0
 10 11  1  0
 11 12  1  0
 12 13  2  0
 13 14  1  0
 14 15  2  0
 15 16  1  0
 15 17  1  0
 17 18  2  0
 11 19  1  0
 19 20  1  0
  7 21  2  0
 21 22  1  0
 22 23  1  0
 23 24  1  0
 24 25  1  0
 25 26  1  0
 24 27  1  0
 27 28  1  0
 28 29  1  0
 22 30  2  0
 30  2  1  0
 30  5  1  0
 20  8  1  0
 29 24  1  0
 18 12  1  0
  3 31  1  0
  3 32  1  0
  4 33  1  0
  4 34  1  0
  9 35  1  0
  9 36  1  0
 10 37  1  0
 10 38  1  0
 11 39  1  0
 14 40  1  0
 17 41  1  0
 19 42  1  0
 19 43  1  0
 20 44  1  0
 20 45  1  0
 23 46  1  0
 25 47  1  0
 25 48  1  0
 26 49  1  0
 27 50  1  0
 27 51  1  0
 28 52  1  0
 28 53  1  0
 29 54  1  0
 29 55  1  0
M  END
>  <meeko>  (9) 
{"is_sidechain": false}

>  <vina_affinity_kcal_mol>  (9) 
-7.419

>  <pose_rank>  (9) 
9

$$$$

     RDKit          3D

 55 59  0  0  0  0  0  0  0  0999 V2000
  -36.6260  143.7610    1.2000 O   0  0  0  0  0  0  0  0  0  0  0  0
  -35.4220  144.6450    1.3420 S   0  0  0  0  0  4  0  0  0  0  0  0
  -34.5790  144.1960    2.9150 C   0  0  0  0  0  0  0  0  0  0  0  0
  -35.3270  144.8860    4.0510 C   0  0  0  0  0  0  0  0  0  0  0  0
  -35.8740  146.1580    3.4670 C   0  0  0  0  0  0  0  0  0  0  0  0
  -36.2280  147.1970    4.2350 N   0  0  0  0  0  0  0  0  0  0  0  0
  -36.7760  148.2520    3.6050 C   0  0  0  0  0  0  0  0  0  0  0  0
  -37.1290  149.3550    4.3490 N   0  0  0  0  0  0  0  0  0  0  0  0
  -38.4670  149.9130    4.2060 C   0  0  0  0  0  0  0  0  0  0  0  0
  -38.4430  151.4210    4.4380 C   0  0  0  0  0  0  0  0  0  0  0  0
  -37.8670  151.7770    5.8150 C   0  0  0  0  0  0  0  0  0  0  0  0
  -37.3670  153.2050    5.8020 C   0  0  0  0  0  0  0  0  0  0  0  0
  -37.6540  153.9740    4.7330 N   0  0  0  0  0  0  0  0  0  0  0  0
  -37.2120  155.2510    4.7660 C   0  0  0  0  0  0  0  0  0  0  0  0
  -36.5070  155.7830    5.8180 C   0  0  0  0  0  0  0  0  0  0  0  0
  -35.9630  157.4030    5.8290 Cl  0  0  0  0  0  0  0  0  0  0  0  0
  -36.2700  154.9210    6.8640 C   0  0  0  0  0  0  0  0  0  0  0  0
  -36.6870  153.6350    6.8850 N   0  0  0  0  0  0  0  0  0  0  0  0
  -36.7810  150.7940    6.2820 C   0  0  0  0  0  0  0  0  0  0  0  0
  -36.1170  150.0770    5.1090 C   0  0  0  0  0  0  0  0  0  0  0  0
  -36.9890  148.2760    2.2700 N   0  0  0  0  0  0  0  0  0  0  0  0
  -36.6370  147.2090    1.5230 C   0  0  0  0  0  0  0  0  0  0  0  0
  -36.8340  147.2480    0.1240 N   0  0  0  0  0  0  0  0  0  0  0  0
  -35.8710  147.7260   -0.8470 C   0  0  0  0  0  0  0  0  0  0  0  0
  -36.3550  148.9490   -1.6370 C   0  0  0  0  0  0  0  0  0  0  0  0
  -35.6440  150.1270   -1.2680 O   0  0  0  0  0  0  0  0  0  0  0  0
  -35.4240  146.5340   -1.7520 C   0  0  0  0  0  0  0  0  0  0  0  0
  -33.9750  147.0360   -1.6020 C   0  0  0  0  0  0  0  0  0  0  0  0
  -34.4120  147.7310   -0.2990 C   0  0  0  0  0  0  0  0  0  0  0  0
  -36.0450  146.1210    2.1070 C   0  0  0  0  0  0  0  0  0  0  0  0
  -34.6048  143.1055    3.0566 H   0  0  0  0  0  0  0  0  0  0  0  0
  -33.5266  144.5154    2.8947 H   0  0  0  0  0  0  0  0  0  0  0  0
  -36.1461  144.2477    4.4138 H   0  0  0  0  0  0  0  0  0  0  0  0
  -34.6674  145.0848    4.9085 H   0  0  0  0  0  0  0  0  0  0  0  0
  -38.8382  149.7085    3.1909 H   0  0  0  0  0  0  0  0  0  0  0  0
  -39.1286  149.4481    4.9517 H   0  0  0  0  0  0  0  0  0  0  0  0
  -37.8229  151.8910    3.6604 H   0  0  0  0  0  0  0  0  0  0  0  0
  -39.4784  151.7899    4.3949 H   0  0  0  0  0  0  0  0  0  0  0  0
  -38.6777  151.6882    6.5531 H   0  0  0  0  0  0  0  0  0  0  0  0
  -37.4286  155.8991    3.9040 H   0  0  0  0  0  0  0  0  0  0  0  0
  -35.7099  155.2994    7.7318 H   0  0  0  0  0  0  0  0  0  0  0  0
  -36.0130  151.3512    6.8386 H   0  0  0  0  0  0  0  0  0  0  0  0
  -37.2601  150.0347    6.9176 H   0  0  0  0  0  0  0  0  0  0  0  0
  -35.6259  150.8151    4.4579 H   0  0  0  0  0  0  0  0  0  0  0  0
  -35.3664  149.3680    5.4884 H   0  0  0  0  0  0  0  0  0  0  0  0
  -37.7750  147.5980   -0.0650 H   0  0  0  0  0  0  0  0  0  0  0  0
  -36.2045  148.7628   -2.7106 H   0  0  0  0  0  0  0  0  0  0  0  0
  -37.4201  149.1051   -1.4107 H   0  0  0  0  0  0  0  0  0  0  0  0
  -35.0470  149.8780   -0.5300 H   0  0  0  0  0  0  0  0  0  0  0  0
  -35.6098  145.5388   -1.3218 H   0  0  0  0  0  0  0  0  0  0  0  0
  -35.8736  146.3633   -2.7413 H   0  0  0  0  0  0  0  0  0  0  0  0
  -33.2270  146.2407   -1.4676 H   0  0  0  0  0  0  0  0  0  0  0  0
  -33.4712  147.5892   -2.4083 H   0  0  0  0  0  0  0  0  0  0  0  0
  -34.2639  147.1304    0.6106 H   0  0  0  0  0  0  0  0  0  0  0  0
  -33.9318  148.6590    0.0449 H   0  0  0  0  0  0  0  0  0  0  0  0
  1  2  2  0
  2  3  1  1
  3  4  1  0
  4  5  1  0
  5  6  2  0
  6  7  1  0
  7  8  1  0
  8  9  1  0
  9 10  1  0
 10 11  1  0
 11 12  1  0
 12 13  2  0
 13 14  1  0
 14 15  2  0
 15 16  1  0
 15 17  1  0
 17 18  2  0
 11 19  1  0
 19 20  1  0
  7 21  2  0
 21 22  1  0
 22 23  1  0
 23 24  1  0
 24 25  1  0
 25 26  1  0
 24 27  1  0
 27 28  1  0
 28 29  1  0
 22 30  2  0
 30  2  1  0
 30  5  1  0
 20  8  1  0
 29 24  1  0
 18 12  1  0
  3 31  1  0
  3 32  1  0
  4 33  1  0
  4 34  1  0
  9 35  1  0
  9 36  1  0
 10 37  1  0
 10 38  1  0
 11 39  1  0
 14 40  1  0
 17 41  1  0
 19 42  1  0
 19 43  1  0
 20 44  1  0
 20 45  1  0
 23 46  1  0
 25 47  1  0
 25 48  1  0
 26 49  1  0
 27 50  1  0
 27 51  1  0
 28 52  1  0
 28 53  1  0
 29 54  1  0
 29 55  1  0
M  END
>  <meeko>  (10) 
{"is_sidechain": false}

>  <vina_affinity_kcal_mol>  (10) 
-7.358

>  <pose_rank>  (10) 
10

$$$$
