
     RDKit          3D

 48 50  0  0  0  0  0  0  0  0999 V2000
    9.4088   -1.2435    1.9316 C   0  0  0  0  0  0  0  0  0  0  0  0
    8.1535   -0.6080    1.6389 N   0  0  0  0  0  0  0  0  0  0  0  0
    7.3964   -0.9384    0.5350 C   0  0  0  0  0  0  0  0  0  0  0  0
    7.6626   -1.8537   -0.2349 O   0  0  0  0  0  0  0  0  0  0  0  0
    6.1943   -0.0664    0.3301 C   0  0  0  0  0  0  0  0  0  0  0  0
    5.3343   -0.3179   -0.7265 C   0  0  0  0  0  0  0  0  0  0  0  0
    4.2302    0.5125   -0.8665 C   0  0  0  0  0  0  0  0  0  0  0  0
    3.4022    0.2745   -1.9398 O   0  0  0  0  0  0  0  0  0  0  0  0
    2.0456    0.2977   -1.7125 C   0  0  0  0  0  0  0  0  0  0  0  0
    1.4439   -0.3872   -0.6525 C   0  0  0  0  0  0  0  0  0  0  0  0
    0.0528   -0.3546   -0.4909 C   0  0  0  0  0  0  0  0  0  0  0  0
   -0.7424    0.3501   -1.3953 C   0  0  0  0  0  0  0  0  0  0  0  0
   -2.1502    0.4365   -1.3236 N   0  0  0  0  0  0  0  0  0  0  0  0
   -2.9688    0.0235   -0.2858 C   0  0  0  0  0  0  0  0  0  0  0  0
   -2.5685   -0.4149    0.7840 O   0  0  0  0  0  0  0  0  0  0  0  0
   -4.3028    0.1787   -0.6348 N   0  0  0  0  0  0  0  0  0  0  0  0
   -5.4341   -0.0438    0.1766 C   0  0  0  0  0  0  0  0  0  0  0  0
   -5.3747   -0.3167    1.5416 C   0  0  0  0  0  0  0  0  0  0  0  0
   -6.5483   -0.5168    2.2753 C   0  0  0  0  0  0  0  0  0  0  0  0
   -7.7961   -0.4418    1.6534 C   0  0  0  0  0  0  0  0  0  0  0  0
   -9.1941   -0.7003    2.6308 Cl  0  0  0  0  0  0  0  0  0  0  0  0
   -7.8846   -0.1627    0.2869 C   0  0  0  0  0  0  0  0  0  0  0  0
   -9.2130   -0.0715   -0.4128 C   0  0  0  0  0  0  0  0  0  0  0  0
  -10.0142    0.9091    0.0855 F   0  0  0  0  0  0  0  0  0  0  0  0
   -9.9297   -1.2266   -0.3560 F   0  0  0  0  0  0  0  0  0  0  0  0
   -9.0904    0.2091   -1.7444 F   0  0  0  0  0  0  0  0  0  0  0  0
   -6.6907    0.0364   -0.4392 C   0  0  0  0  0  0  0  0  0  0  0  0
   -0.1184    1.0006   -2.4689 C   0  0  0  0  0  0  0  0  0  0  0  0
   -0.8708    1.6680   -3.3595 F   0  0  0  0  0  0  0  0  0  0  0  0
    1.2615    0.9777   -2.6388 C   0  0  0  0  0  0  0  0  0  0  0  0
    4.0388    1.5774    0.0119 C   0  0  0  0  0  0  0  0  0  0  0  0
    4.9546    1.7485    1.0358 C   0  0  0  0  0  0  0  0  0  0  0  0
    6.0282    0.9522    1.2239 N   0  0  0  0  0  0  0  0  0  0  0  0
   10.1933   -0.7428    1.3584 H   0  0  0  0  0  0  0  0  0  0  0  0
    9.3769   -2.3012    1.6575 H   0  0  0  0  0  0  0  0  0  0  0  0
    9.6102   -1.1399    3.0002 H   0  0  0  0  0  0  0  0  0  0  0  0
    7.8745    0.2360    2.1332 H   0  0  0  0  0  0  0  0  0  0  0  0
    5.5156   -1.1364   -1.4145 H   0  0  0  0  0  0  0  0  0  0  0  0
    2.0435   -0.9612    0.0501 H   0  0  0  0  0  0  0  0  0  0  0  0
   -0.3775   -0.9030    0.3421 H   0  0  0  0  0  0  0  0  0  0  0  0
   -2.5749    0.9937   -2.0531 H   0  0  0  0  0  0  0  0  0  0  0  0
   -4.4809    0.3508   -1.6129 H   0  0  0  0  0  0  0  0  0  0  0  0
   -4.4299   -0.3766    2.0740 H   0  0  0  0  0  0  0  0  0  0  0  0
   -6.4749   -0.7308    3.3398 H   0  0  0  0  0  0  0  0  0  0  0  0
   -6.7556    0.2545   -1.5049 H   0  0  0  0  0  0  0  0  0  0  0  0
    1.7117    1.4879   -3.4836 H   0  0  0  0  0  0  0  0  0  0  0  0
    3.2059    2.2629   -0.0956 H   0  0  0  0  0  0  0  0  0  0  0  0
    4.8462    2.5602    1.7505 H   0  0  0  0  0  0  0  0  0  0  0  0
  1  2  1  0
  2  3  1  0
  3  4  2  0
  3  5  1  0
  5  6  2  0
  6  7  1  0
  7  8  1  0
  8  9  1  0
  9 10  1  0
 10 11  2  0
 11 12  1  0
 12 13  1  0
 13 14  1  0
 14 15  2  0
 14 16  1  0
 16 17  1  0
 17 18  1  0
 18 19  2  0
 19 20  1  0
 20 21  1  0
 20 22  2  0
 22 23  1  0
 23 24  1  0
 23 25  1  0
 23 26  1  0
 22 27  1  0
 12 28  2  0
 28 29  1  0
 28 30  1  0
  7 31  2  0
 31 32  1  0
 32 33  2  0
 33  5  1  0
 30  9  2  0
 27 17  2  0
  1 34  1  0
  1 35  1  0
  1 36  1  0
  2 37  1  0
  6 38  1  0
 10 39  1  0
 11 40  1  0
 13 41  1  0
 16 42  1  0
 18 43  1  0
 19 44  1  0
 27 45  1  0
 30 46  1  0
 31 47  1  0
 32 48  1  0
M  END
$$$$
