
     RDKit          3D

 48 50  0  0  0  0  0  0  0  0999 V2000
  -20.1190    0.0430   -6.5140 C   0  0  0  0  0  0  0  0  0  0  0  0
  -18.7790   -0.4550   -6.6540 N   0  0  0  0  0  0  0  0  0  0  0  0
  -17.7770   -0.1510   -5.7560 C   0  0  0  0  0  0  0  0  0  0  0  0
  -17.9500    0.4780   -4.7180 O   0  0  0  0  0  0  0  0  0  0  0  0
  -16.4210   -0.6500   -6.1540 C   0  0  0  0  0  0  0  0  0  0  0  0
  -16.1570   -0.9380   -7.4830 C   0  0  0  0  0  0  0  0  0  0  0  0
  -14.8820   -1.3870   -7.8000 C   0  0  0  0  0  0  0  0  0  0  0  0
  -14.6420   -1.7050   -9.1180 O   0  0  0  0  0  0  0  0  0  0  0  0
  -13.7380   -0.9280   -9.8040 C   0  0  0  0  0  0  0  0  0  0  0  0
  -12.4120   -1.3190  -10.0150 C   0  0  0  0  0  0  0  0  0  0  0  0
  -11.5250   -0.4710  -10.6920 C   0  0  0  0  0  0  0  0  0  0  0  0
  -11.9560    0.7750  -11.1460 C   0  0  0  0  0  0  0  0  0  0  0  0
  -11.1400    1.7040  -11.8290 N   0  0  0  0  0  0  0  0  0  0  0  0
  -10.9380    1.8050  -13.1950 C   0  0  0  0  0  0  0  0  0  0  0  0
  -11.5180    1.1310  -14.0360 O   0  0  0  0  0  0  0  0  0  0  0  0
   -9.9840    2.7740  -13.4700 N   0  0  0  0  0  0  0  0  0  0  0  0
   -9.5670    3.2330  -14.7370 C   0  0  0  0  0  0  0  0  0  0  0  0
   -8.4600    2.7370  -15.4220 C   0  0  0  0  0  0  0  0  0  0  0  0
   -8.1210    3.2440  -16.6800 C   0  0  0  0  0  0  0  0  0  0  0  0
   -8.8890    4.2490  -17.2710 C   0  0  0  0  0  0  0  0  0  0  0  0
   -8.4030    4.8170  -18.8270 Cl  0  0  0  0  0  0  0  0  0  0  0  0
  -10.0080    4.7600  -16.6100 C   0  0  0  0  0  0  0  0  0  0  0  0
  -10.8590    5.8400  -17.2190 C   0  0  0  0  0  0  0  0  0  0  0  0
  -11.2890    5.5380  -18.4740 F   0  0  0  0  0  0  0  0  0  0  0  0
  -10.2210    7.0400  -17.3050 F   0  0  0  0  0  0  0  0  0  0  0  0
  -11.9930    6.0880  -16.5010 F   0  0  0  0  0  0  0  0  0  0  0  0
  -10.3360    4.2380  -15.3400 C   0  0  0  0  0  0  0  0  0  0  0  0
  -13.2810    1.1590  -10.8920 C   0  0  0  0  0  0  0  0  0  0  0  0
  -13.7070    2.3640  -11.3060 F   0  0  0  0  0  0  0  0  0  0  0  0
  -14.1710    0.3250  -10.2240 C   0  0  0  0  0  0  0  0  0  0  0  0
  -13.9340   -1.5710   -6.7960 C   0  0  0  0  0  0  0  0  0  0  0  0
  -14.2930   -1.2560   -5.4970 C   0  0  0  0  0  0  0  0  0  0  0  0
  -15.5120   -0.7950   -5.1460 N   0  0  0  0  0  0  0  0  0  0  0  0
  -20.3663    0.1349   -5.4461 H   0  0  0  0  0  0  0  0  0  0  0  0
  -20.1956    1.0296   -6.9943 H   0  0  0  0  0  0  0  0  0  0  0  0
  -20.8213   -0.6542   -6.9943 H   0  0  0  0  0  0  0  0  0  0  0  0
  -18.4790   -0.8930   -7.5220 H   0  0  0  0  0  0  0  0  0  0  0  0
  -16.9282   -0.8156   -8.2578 H   0  0  0  0  0  0  0  0  0  0  0  0
  -12.0638   -2.2959   -9.6482 H   0  0  0  0  0  0  0  0  0  0  0  0
  -10.4864   -0.7891  -10.8656 H   0  0  0  0  0  0  0  0  0  0  0  0
  -10.7910    2.4590  -11.2540 H   0  0  0  0  0  0  0  0  0  0  0  0
   -9.4470    3.0940  -12.6790 H   0  0  0  0  0  0  0  0  0  0  0  0
   -7.8489    1.9416  -14.9703 H   0  0  0  0  0  0  0  0  0  0  0  0
   -7.2416    2.8477  -17.2087 H   0  0  0  0  0  0  0  0  0  0  0  0
  -11.2170    4.6297  -14.8104 H   0  0  0  0  0  0  0  0  0  0  0  0
  -15.2033    0.6519  -10.0305 H   0  0  0  0  0  0  0  0  0  0  0  0
  -12.9299   -1.9552   -7.0287 H   0  0  0  0  0  0  0  0  0  0  0  0
  -13.5414   -1.3890   -4.7049 H   0  0  0  0  0  0  0  0  0  0  0  0
  1  2  1  0
  2  3  1  0
  3  4  2  0
  3  5  1  0
  5  6  2  0
  6  7  1  0
  7  8  1  0
  8  9  1  0
  9 10  1  0
 10 11  2  0
 11 12  1  0
 12 13  1  0
 13 14  1  0
 14 15  2  0
 14 16  1  0
 16 17  1  0
 17 18  1  0
 18 19  2  0
 19 20  1  0
 20 21  1  0
 20 22  2  0
 22 23  1  0
 23 24  1  0
 23 25  1  0
 23 26  1  0
 22 27  1  0
 12 28  2  0
 28 29  1  0
 28 30  1  0
  7 31  2  0
 31 32  1  0
 32 33  2  0
 33  5  1  0
 30  9  2  0
 27 17  2  0
  1 34  1  0
  1 35  1  0
  1 36  1  0
  2 37  1  0
  6 38  1  0
 10 39  1  0
 11 40  1  0
 13 41  1  0
 16 42  1  0
 18 43  1  0
 19 44  1  0
 27 45  1  0
 30 46  1  0
 31 47  1  0
 32 48  1  0
M  END
>  <meeko>  (1) 
{"is_sidechain": false}

>  <vina_affinity_kcal_mol>  (1) 
-9.143

>  <pose_rank>  (1) 
1

$$$$

     RDKit          3D

 48 50  0  0  0  0  0  0  0  0999 V2000
   -5.5640   -7.0910  -15.8150 C   0  0  0  0  0  0  0  0  0  0  0  0
   -5.5220   -5.6690  -15.6120 N   0  0  0  0  0  0  0  0  0  0  0  0
   -4.3480   -4.9470  -15.6690 C   0  0  0  0  0  0  0  0  0  0  0  0
   -3.2630   -5.4200  -15.9900 O   0  0  0  0  0  0  0  0  0  0  0  0
   -4.4930   -3.5040  -15.2900 C   0  0  0  0  0  0  0  0  0  0  0  0
   -5.6710   -3.0610  -14.7100 C   0  0  0  0  0  0  0  0  0  0  0  0
   -5.7510   -1.7170  -14.3680 C   0  0  0  0  0  0  0  0  0  0  0  0
   -6.9390   -1.2810  -13.8260 O   0  0  0  0  0  0  0  0  0  0  0  0
   -7.6170   -0.2900  -14.4970 C   0  0  0  0  0  0  0  0  0  0  0  0
   -7.9030   -0.3610  -15.8630 C   0  0  0  0  0  0  0  0  0  0  0  0
   -8.5670    0.6950  -16.5010 C   0  0  0  0  0  0  0  0  0  0  0  0
   -8.9350    1.8310  -15.7780 C   0  0  0  0  0  0  0  0  0  0  0  0
   -9.5980    2.9490  -16.3280 N   0  0  0  0  0  0  0  0  0  0  0  0
   -9.0260    4.1120  -16.8190 C   0  0  0  0  0  0  0  0  0  0  0  0
   -7.8230    4.3060  -16.9200 O   0  0  0  0  0  0  0  0  0  0  0  0
  -10.0130    5.0200  -17.1760 N   0  0  0  0  0  0  0  0  0  0  0  0
   -9.8410    6.2760  -17.7930 C   0  0  0  0  0  0  0  0  0  0  0  0
   -9.3980    7.4180  -17.1300 C   0  0  0  0  0  0  0  0  0  0  0  0
   -9.2460    8.6240  -17.8210 C   0  0  0  0  0  0  0  0  0  0  0  0
   -9.5310    8.7010  -19.1860 C   0  0  0  0  0  0  0  0  0  0  0  0
   -9.3160   10.2260  -19.9630 Cl  0  0  0  0  0  0  0  0  0  0  0  0
   -9.9700    7.5690  -19.8770 C   0  0  0  0  0  0  0  0  0  0  0  0
  -10.2820    7.6170  -21.3480 C   0  0  0  0  0  0  0  0  0  0  0  0
   -9.1970    7.9080  -22.1150 F   0  0  0  0  0  0  0  0  0  0  0  0
  -11.2400    8.5320  -21.6630 F   0  0  0  0  0  0  0  0  0  0  0  0
  -10.7520    6.4270  -21.8270 F   0  0  0  0  0  0  0  0  0  0  0  0
  -10.1190    6.3600  -19.1650 C   0  0  0  0  0  0  0  0  0  0  0  0
   -8.6060    1.8920  -14.4160 C   0  0  0  0  0  0  0  0  0  0  0  0
   -8.9350    2.9870  -13.7100 F   0  0  0  0  0  0  0  0  0  0  0  0
   -7.9490    0.8490  -13.7720 C   0  0  0  0  0  0  0  0  0  0  0  0
   -4.6890   -0.8600  -14.6450 C   0  0  0  0  0  0  0  0  0  0  0  0
   -3.5530   -1.3970  -15.2280 C   0  0  0  0  0  0  0  0  0  0  0  0
   -3.4230   -2.7000  -15.5550 N   0  0  0  0  0  0  0  0  0  0  0  0
   -5.5790   -7.6003  -14.8401 H   0  0  0  0  0  0  0  0  0  0  0  0
   -6.4703   -7.3541  -16.3801 H   0  0  0  0  0  0  0  0  0  0  0  0
   -4.6748   -7.4071  -16.3801 H   0  0  0  0  0  0  0  0  0  0  0  0
   -6.3270   -5.1780  -15.2330 H   0  0  0  0  0  0  0  0  0  0  0  0
   -6.5108   -3.7475  -14.5274 H   0  0  0  0  0  0  0  0  0  0  0  0
   -7.6057   -1.2493  -16.4396 H   0  0  0  0  0  0  0  0  0  0  0  0
   -8.7989    0.6287  -17.5742 H   0  0  0  0  0  0  0  0  0  0  0  0
  -10.5830    2.8070  -16.5110 H   0  0  0  0  0  0  0  0  0  0  0  0
  -10.9420    4.8070  -16.8450 H   0  0  0  0  0  0  0  0  0  0  0  0
   -9.1662    7.3708  -16.0557 H   0  0  0  0  0  0  0  0  0  0  0  0
   -8.8990    9.5197  -17.2850 H   0  0  0  0  0  0  0  0  0  0  0  0
  -10.4616    5.4614  -19.6991 H   0  0  0  0  0  0  0  0  0  0  0  0
   -7.6956    0.9241  -12.7042 H   0  0  0  0  0  0  0  0  0  0  0  0
   -4.7504    0.2123  -14.4077 H   0  0  0  0  0  0  0  0  0  0  0  0
   -2.7089   -0.7232  -15.4363 H   0  0  0  0  0  0  0  0  0  0  0  0
  1  2  1  0
  2  3  1  0
  3  4  2  0
  3  5  1  0
  5  6  2  0
  6  7  1  0
  7  8  1  0
  8  9  1  0
  9 10  1  0
 10 11  2  0
 11 12  1  0
 12 13  1  0
 13 14  1  0
 14 15  2  0
 14 16  1  0
 16 17  1  0
 17 18  1  0
 18 19  2  0
 19 20  1  0
 20 21  1  0
 20 22  2  0
 22 23  1  0
 23 24  1  0
 23 25  1  0
 23 26  1  0
 22 27  1  0
 12 28  2  0
 28 29  1  0
 28 30  1  0
  7 31  2  0
 31 32  1  0
 32 33  2  0
 33  5  1  0
 30  9  2  0
 27 17  2  0
  1 34  1  0
  1 35  1  0
  1 36  1  0
  2 37  1  0
  6 38  1  0
 10 39  1  0
 11 40  1  0
 13 41  1  0
 16 42  1  0
 18 43  1  0
 19 44  1  0
 27 45  1  0
 30 46  1  0
 31 47  1  0
 32 48  1  0
M  END
>  <meeko>  (2) 
{"is_sidechain": false}

>  <vina_affinity_kcal_mol>  (2) 
-8.722

>  <pose_rank>  (2) 
2

$$$$

     RDKit          3D

 48 50  0  0  0  0  0  0  0  0999 V2000
  -20.0860   -0.2380   -6.4940 C   0  0  0  0  0  0  0  0  0  0  0  0
  -18.7270   -0.6860   -6.6220 N   0  0  0  0  0  0  0  0  0  0  0  0
  -17.7200   -0.2440   -5.7900 C   0  0  0  0  0  0  0  0  0  0  0  0
  -17.8970    0.4820   -4.8180 O   0  0  0  0  0  0  0  0  0  0  0  0
  -16.3510   -0.7190   -6.1740 C   0  0  0  0  0  0  0  0  0  0  0  0
  -16.0730   -1.0170   -7.4980 C   0  0  0  0  0  0  0  0  0  0  0  0
  -14.7870   -1.4430   -7.8030 C   0  0  0  0  0  0  0  0  0  0  0  0
  -14.5320   -1.7700   -9.1160 O   0  0  0  0  0  0  0  0  0  0  0  0
  -13.6490   -0.9750   -9.8080 C   0  0  0  0  0  0  0  0  0  0  0  0
  -12.3200   -1.3450  -10.0410 C   0  0  0  0  0  0  0  0  0  0  0  0
  -11.4560   -0.4790  -10.7220 C   0  0  0  0  0  0  0  0  0  0  0  0
  -11.9120    0.7640  -11.1620 C   0  0  0  0  0  0  0  0  0  0  0  0
  -11.1180    1.7100  -11.8480 N   0  0  0  0  0  0  0  0  0  0  0  0
  -11.0430    1.9130  -13.2160 C   0  0  0  0  0  0  0  0  0  0  0  0
  -11.7340    1.3360  -14.0450 O   0  0  0  0  0  0  0  0  0  0  0  0
  -10.0720    2.8600  -13.5090 N   0  0  0  0  0  0  0  0  0  0  0  0
   -9.7560    3.4030  -14.7720 C   0  0  0  0  0  0  0  0  0  0  0  0
  -10.5670    4.2990  -15.4630 C   0  0  0  0  0  0  0  0  0  0  0  0
  -10.1720    4.7960  -16.7090 C   0  0  0  0  0  0  0  0  0  0  0  0
   -8.9580    4.4050  -17.2770 C   0  0  0  0  0  0  0  0  0  0  0  0
   -8.5450    5.0660  -18.8160 Cl  0  0  0  0  0  0  0  0  0  0  0  0
   -8.1210    3.5130  -16.6020 C   0  0  0  0  0  0  0  0  0  0  0  0
   -6.8050    3.0750  -17.1830 C   0  0  0  0  0  0  0  0  0  0  0  0
   -5.9340    4.1030  -17.3700 F   0  0  0  0  0  0  0  0  0  0  0  0
   -6.9320    2.4480  -18.3850 F   0  0  0  0  0  0  0  0  0  0  0  0
   -6.1440    2.1860  -16.3840 F   0  0  0  0  0  0  0  0  0  0  0  0
   -8.5350    3.0200  -15.3450 C   0  0  0  0  0  0  0  0  0  0  0  0
  -13.2380    1.1260  -10.8870 C   0  0  0  0  0  0  0  0  0  0  0  0
  -13.6870    2.3280  -11.2850 F   0  0  0  0  0  0  0  0  0  0  0  0
  -14.1060    0.2740  -10.2120 C   0  0  0  0  0  0  0  0  0  0  0  0
  -13.8420   -1.5970   -6.7910 C   0  0  0  0  0  0  0  0  0  0  0  0
  -14.2150   -1.2760   -5.4970 C   0  0  0  0  0  0  0  0  0  0  0  0
  -15.4460   -0.8350   -5.1590 N   0  0  0  0  0  0  0  0  0  0  0  0
  -20.3451   -0.1526   -5.4284 H   0  0  0  0  0  0  0  0  0  0  0  0
  -20.1955    0.7438   -6.9778 H   0  0  0  0  0  0  0  0  0  0  0  0
  -20.7579   -0.9622   -6.9778 H   0  0  0  0  0  0  0  0  0  0  0  0
  -18.4280   -1.1990   -7.4470 H   0  0  0  0  0  0  0  0  0  0  0  0
  -16.8421   -0.9198   -8.2784 H   0  0  0  0  0  0  0  0  0  0  0  0
  -11.9526   -2.3198   -9.6879 H   0  0  0  0  0  0  0  0  0  0  0  0
  -10.4148   -0.7794  -10.9107 H   0  0  0  0  0  0  0  0  0  0  0  0
  -10.6780    2.4000  -11.2550 H   0  0  0  0  0  0  0  0  0  0  0  0
   -9.4460    3.0920  -12.7530 H   0  0  0  0  0  0  0  0  0  0  0  0
  -11.5247    4.6181  -15.0261 H   0  0  0  0  0  0  0  0  0  0  0  0
  -10.8234    5.5011  -17.2462 H   0  0  0  0  0  0  0  0  0  0  0  0
   -7.8839    2.3187  -14.8025 H   0  0  0  0  0  0  0  0  0  0  0  0
  -15.1399    0.5844  -10.0008 H   0  0  0  0  0  0  0  0  0  0  0  0
  -12.8289   -1.9630   -7.0137 H   0  0  0  0  0  0  0  0  0  0  0  0
  -13.4662   -1.3864   -4.6988 H   0  0  0  0  0  0  0  0  0  0  0  0
  1  2  1  0
  2  3  1  0
  3  4  2  0
  3  5  1  0
  5  6  2  0
  6  7  1  0
  7  8  1  0
  8  9  1  0
  9 10  1  0
 10 11  2  0
 11 12  1  0
 12 13  1  0
 13 14  1  0
 14 15  2  0
 14 16  1  0
 16 17  1  0
 17 18  1  0
 18 19  2  0
 19 20  1  0
 20 21  1  0
 20 22  2  0
 22 23  1  0
 23 24  1  0
 23 25  1  0
 23 26  1  0
 22 27  1  0
 12 28  2  0
 28 29  1  0
 28 30  1  0
  7 31  2  0
 31 32  1  0
 32 33  2  0
 33  5  1  0
 30  9  2  0
 27 17  2  0
  1 34  1  0
  1 35  1  0
  1 36  1  0
  2 37  1  0
  6 38  1  0
 10 39  1  0
 11 40  1  0
 13 41  1  0
 16 42  1  0
 18 43  1  0
 19 44  1  0
 27 45  1  0
 30 46  1  0
 31 47  1  0
 32 48  1  0
M  END
>  <meeko>  (3) 
{"is_sidechain": false}

>  <vina_affinity_kcal_mol>  (3) 
-8.719

>  <pose_rank>  (3) 
3

$$$$

     RDKit          3D

 48 50  0  0  0  0  0  0  0  0999 V2000
  -10.6160   -1.4600   -4.1960 C   0  0  0  0  0  0  0  0  0  0  0  0
  -11.7680   -1.4290   -5.0550 N   0  0  0  0  0  0  0  0  0  0  0  0
  -12.9250   -0.7570   -4.7200 C   0  0  0  0  0  0  0  0  0  0  0  0
  -13.0480   -0.0520   -3.7240 O   0  0  0  0  0  0  0  0  0  0  0  0
  -14.0570   -0.9630   -5.6810 C   0  0  0  0  0  0  0  0  0  0  0  0
  -13.7890   -1.3090   -6.9950 C   0  0  0  0  0  0  0  0  0  0  0  0
  -14.8740   -1.4980   -7.8420 C   0  0  0  0  0  0  0  0  0  0  0  0
  -14.5940   -1.8060   -9.1540 O   0  0  0  0  0  0  0  0  0  0  0  0
  -13.7120   -0.9910   -9.8230 C   0  0  0  0  0  0  0  0  0  0  0  0
  -12.3760   -1.3400  -10.0430 C   0  0  0  0  0  0  0  0  0  0  0  0
  -11.5140   -0.4540  -10.7020 C   0  0  0  0  0  0  0  0  0  0  0  0
  -11.9810    0.7880  -11.1320 C   0  0  0  0  0  0  0  0  0  0  0  0
  -11.1910    1.7530  -11.7960 N   0  0  0  0  0  0  0  0  0  0  0  0
  -10.9500    1.8550  -13.1560 C   0  0  0  0  0  0  0  0  0  0  0  0
  -11.4670    1.1460  -14.0090 O   0  0  0  0  0  0  0  0  0  0  0  0
  -10.0390    2.8700  -13.4080 N   0  0  0  0  0  0  0  0  0  0  0  0
   -9.6050    3.3410  -14.6650 C   0  0  0  0  0  0  0  0  0  0  0  0
   -8.4670    2.8780  -15.3220 C   0  0  0  0  0  0  0  0  0  0  0  0
   -8.1130    3.3940  -16.5720 C   0  0  0  0  0  0  0  0  0  0  0  0
   -8.8950    4.3770  -17.1820 C   0  0  0  0  0  0  0  0  0  0  0  0
   -8.3880    4.9580  -18.7260 Cl  0  0  0  0  0  0  0  0  0  0  0  0
  -10.0450    4.8540  -16.5490 C   0  0  0  0  0  0  0  0  0  0  0  0
  -10.9120    5.9080  -17.1800 C   0  0  0  0  0  0  0  0  0  0  0  0
  -11.3700    5.5570  -18.4120 F   0  0  0  0  0  0  0  0  0  0  0  0
  -10.2800    7.1050  -17.3260 F   0  0  0  0  0  0  0  0  0  0  0  0
  -12.0310    6.1810  -16.4460 F   0  0  0  0  0  0  0  0  0  0  0  0
  -10.3880    4.3230  -15.2870 C   0  0  0  0  0  0  0  0  0  0  0  0
  -13.3160    1.1290  -10.8710 C   0  0  0  0  0  0  0  0  0  0  0  0
  -13.7760    2.3300  -11.2610 F   0  0  0  0  0  0  0  0  0  0  0  0
  -14.1810    0.2570  -10.2190 C   0  0  0  0  0  0  0  0  0  0  0  0
  -16.1700   -1.3010   -7.3730 C   0  0  0  0  0  0  0  0  0  0  0  0
  -16.3370   -0.9540   -6.0430 C   0  0  0  0  0  0  0  0  0  0  0  0
  -15.3140   -0.7840   -5.1790 N   0  0  0  0  0  0  0  0  0  0  0  0
  -10.9417   -1.4512   -3.1454 H   0  0  0  0  0  0  0  0  0  0  0  0
  -10.0365   -2.3741   -4.3926 H   0  0  0  0  0  0  0  0  0  0  0  0
   -9.9882   -0.5784   -4.3926 H   0  0  0  0  0  0  0  0  0  0  0  0
  -11.8350   -2.0580   -5.8520 H   0  0  0  0  0  0  0  0  0  0  0  0
  -12.7564   -1.4296   -7.3544 H   0  0  0  0  0  0  0  0  0  0  0  0
  -12.0003   -2.3143   -9.6972 H   0  0  0  0  0  0  0  0  0  0  0  0
  -10.4665   -0.7384  -10.8808 H   0  0  0  0  0  0  0  0  0  0  0  0
  -10.9000    2.5300  -11.2170 H   0  0  0  0  0  0  0  0  0  0  0  0
   -9.5440    3.2230  -12.6030 H   0  0  0  0  0  0  0  0  0  0  0  0
   -7.8434    2.1018  -14.8543 H   0  0  0  0  0  0  0  0  0  0  0  0
   -7.2106    3.0225  -17.0795 H   0  0  0  0  0  0  0  0  0  0  0  0
  -11.2924    4.6890  -14.7790 H   0  0  0  0  0  0  0  0  0  0  0  0
  -15.2222    0.5503  -10.0191 H   0  0  0  0  0  0  0  0  0  0  0  0
  -17.0368   -1.4177   -8.0402 H   0  0  0  0  0  0  0  0  0  0  0  0
  -17.3613   -0.8086   -5.6694 H   0  0  0  0  0  0  0  0  0  0  0  0
  1  2  1  0
  2  3  1  0
  3  4  2  0
  3  5  1  0
  5  6  2  0
  6  7  1  0
  7  8  1  0
  8  9  1  0
  9 10  1  0
 10 11  2  0
 11 12  1  0
 12 13  1  0
 13 14  1  0
 14 15  2  0
 14 16  1  0
 16 17  1  0
 17 18  1  0
 18 19  2  0
 19 20  1  0
 20 21  1  0
 20 22  2  0
 22 23  1  0
 23 24  1  0
 23 25  1  0
 23 26  1  0
 22 27  1  0
 12 28  2  0
 28 29  1  0
 28 30  1  0
  7 31  2  0
 31 32  1  0
 32 33  2  0
 33  5  1  0
 30  9  2  0
 27 17  2  0
  1 34  1  0
  1 35  1  0
  1 36  1  0
  2 37  1  0
  6 38  1  0
 10 39  1  0
 11 40  1  0
 13 41  1  0
 16 42  1  0
 18 43  1  0
 19 44  1  0
 27 45  1  0
 30 46  1  0
 31 47  1  0
 32 48  1  0
M  END
>  <meeko>  (4) 
{"is_sidechain": false}

>  <vina_affinity_kcal_mol>  (4) 
-8.605

>  <pose_rank>  (4) 
4

$$$$

     RDKit          3D

 48 50  0  0  0  0  0  0  0  0999 V2000
   -1.4360    0.7030  -17.2530 C   0  0  0  0  0  0  0  0  0  0  0  0
   -2.5390   -0.0290  -16.6940 N   0  0  0  0  0  0  0  0  0  0  0  0
   -2.3750   -0.9740  -15.7030 C   0  0  0  0  0  0  0  0  0  0  0  0
   -1.3090   -1.2080  -15.1430 O   0  0  0  0  0  0  0  0  0  0  0  0
   -3.6250   -1.7250  -15.3550 C   0  0  0  0  0  0  0  0  0  0  0  0
   -4.6730   -1.0660  -14.7340 C   0  0  0  0  0  0  0  0  0  0  0  0
   -5.8120   -1.8050  -14.4430 C   0  0  0  0  0  0  0  0  0  0  0  0
   -6.8330   -1.1480  -13.7940 O   0  0  0  0  0  0  0  0  0  0  0  0
   -7.5270   -0.1960  -14.5030 C   0  0  0  0  0  0  0  0  0  0  0  0
   -7.8520   -0.3480  -15.8550 C   0  0  0  0  0  0  0  0  0  0  0  0
   -8.5320    0.6710  -16.5360 C   0  0  0  0  0  0  0  0  0  0  0  0
   -8.8770    1.8480  -15.8720 C   0  0  0  0  0  0  0  0  0  0  0  0
   -9.5530    2.9350  -16.4710 N   0  0  0  0  0  0  0  0  0  0  0  0
   -8.9990    4.1010  -16.9710 C   0  0  0  0  0  0  0  0  0  0  0  0
   -7.7980    4.3270  -17.0400 O   0  0  0  0  0  0  0  0  0  0  0  0
   -9.9980    4.9720  -17.3810 N   0  0  0  0  0  0  0  0  0  0  0  0
   -9.8410    6.2170  -18.0220 C   0  0  0  0  0  0  0  0  0  0  0  0
   -9.4200    7.3800  -17.3810 C   0  0  0  0  0  0  0  0  0  0  0  0
   -9.2820    8.5730  -18.0950 C   0  0  0  0  0  0  0  0  0  0  0  0
   -9.5610    8.6180  -19.4630 C   0  0  0  0  0  0  0  0  0  0  0  0
   -9.3640   10.1300  -20.2700 Cl  0  0  0  0  0  0  0  0  0  0  0  0
   -9.9790    7.4660  -20.1340 C   0  0  0  0  0  0  0  0  0  0  0  0
  -10.2820    7.4780  -21.6070 C   0  0  0  0  0  0  0  0  0  0  0  0
  -11.2050    8.4150  -21.9540 F   0  0  0  0  0  0  0  0  0  0  0  0
  -10.7460    6.2840  -22.0680 F   0  0  0  0  0  0  0  0  0  0  0  0
   -9.1840    7.7550  -22.3700 F   0  0  0  0  0  0  0  0  0  0  0  0
  -10.1130    6.2690  -19.3970 C   0  0  0  0  0  0  0  0  0  0  0  0
   -8.5100    1.9910  -14.5260 C   0  0  0  0  0  0  0  0  0  0  0  0
   -8.8170    3.1270  -13.8780 F   0  0  0  0  0  0  0  0  0  0  0  0
   -7.8370    0.9860  -13.8390 C   0  0  0  0  0  0  0  0  0  0  0  0
   -5.8580   -3.1650  -14.7370 C   0  0  0  0  0  0  0  0  0  0  0  0
   -4.7590   -3.7360  -15.3570 C   0  0  0  0  0  0  0  0  0  0  0  0
   -3.6420   -3.0510  -15.6800 N   0  0  0  0  0  0  0  0  0  0  0  0
   -0.8184    1.1129  -16.4402 H   0  0  0  0  0  0  0  0  0  0  0  0
   -0.8260    0.0299  -17.8733 H   0  0  0  0  0  0  0  0  0  0  0  0
   -1.8193    1.5266  -17.8733 H   0  0  0  0  0  0  0  0  0  0  0  0
   -3.4510   -0.0100  -17.1420 H   0  0  0  0  0  0  0  0  0  0  0  0
   -4.6056    0.0024  -14.4809 H   0  0  0  0  0  0  0  0  0  0  0  0
   -7.5730   -1.2703  -16.3855 H   0  0  0  0  0  0  0  0  0  0  0  0
   -8.7942    0.5421  -17.5965 H   0  0  0  0  0  0  0  0  0  0  0  0
  -10.5270    2.7600  -16.6800 H   0  0  0  0  0  0  0  0  0  0  0  0
  -10.9310    4.7410  -17.0730 H   0  0  0  0  0  0  0  0  0  0  0  0
   -9.1945    7.3589  -16.3046 H   0  0  0  0  0  0  0  0  0  0  0  0
   -8.9509    9.4844  -17.5756 H   0  0  0  0  0  0  0  0  0  0  0  0
  -10.4388    5.3545  -19.9141 H   0  0  0  0  0  0  0  0  0  0  0  0
   -7.5539    1.1243  -12.7851 H   0  0  0  0  0  0  0  0  0  0  0  0
   -6.7420   -3.7688  -14.4841 H   0  0  0  0  0  0  0  0  0  0  0  0
   -4.7989   -4.8081  -15.5998 H   0  0  0  0  0  0  0  0  0  0  0  0
  1  2  1  0
  2  3  1  0
  3  4  2  0
  3  5  1  0
  5  6  2  0
  6  7  1  0
  7  8  1  0
  8  9  1  0
  9 10  1  0
 10 11  2  0
 11 12  1  0
 12 13  1  0
 13 14  1  0
 14 15  2  0
 14 16  1  0
 16 17  1  0
 17 18  1  0
 18 19  2  0
 19 20  1  0
 20 21  1  0
 20 22  2  0
 22 23  1  0
 23 24  1  0
 23 25  1  0
 23 26  1  0
 22 27  1  0
 12 28  2  0
 28 29  1  0
 28 30  1  0
  7 31  2  0
 31 32  1  0
 32 33  2  0
 33  5  1  0
 30  9  2  0
 27 17  2  0
  1 34  1  0
  1 35  1  0
  1 36  1  0
  2 37  1  0
  6 38  1  0
 10 39  1  0
 11 40  1  0
 13 41  1  0
 16 42  1  0
 18 43  1  0
 19 44  1  0
 27 45  1  0
 30 46  1  0
 31 47  1  0
 32 48  1  0
M  END
>  <meeko>  (5) 
{"is_sidechain": false}

>  <vina_affinity_kcal_mol>  (5) 
-8.531

>  <pose_rank>  (5) 
5

$$$$

     RDKit          3D

 48 50  0  0  0  0  0  0  0  0999 V2000
  -12.2110   -1.6430   -8.9630 C   0  0  0  0  0  0  0  0  0  0  0  0
  -10.9090   -1.3850   -9.5130 N   0  0  0  0  0  0  0  0  0  0  0  0
  -10.2860   -2.2550  -10.3840 C   0  0  0  0  0  0  0  0  0  0  0  0
  -10.8110   -3.2640  -10.8420 O   0  0  0  0  0  0  0  0  0  0  0  0
   -8.8790   -1.8750  -10.7320 C   0  0  0  0  0  0  0  0  0  0  0  0
   -8.5300   -1.6700  -12.0570 C   0  0  0  0  0  0  0  0  0  0  0  0
   -7.2150   -1.3110  -12.3250 C   0  0  0  0  0  0  0  0  0  0  0  0
   -6.8710   -1.1450  -13.6480 O   0  0  0  0  0  0  0  0  0  0  0  0
   -7.5560   -0.1940  -14.3670 C   0  0  0  0  0  0  0  0  0  0  0  0
   -7.8960   -0.3620  -15.7130 C   0  0  0  0  0  0  0  0  0  0  0  0
   -8.5650    0.6570  -16.4050 C   0  0  0  0  0  0  0  0  0  0  0  0
   -8.8830    1.8510  -15.7580 C   0  0  0  0  0  0  0  0  0  0  0  0
   -9.5460    2.9390  -16.3680 N   0  0  0  0  0  0  0  0  0  0  0  0
   -8.9790    4.1000  -16.8670 C   0  0  0  0  0  0  0  0  0  0  0  0
   -7.7770    4.3190  -16.9230 O   0  0  0  0  0  0  0  0  0  0  0  0
   -9.9690    4.9750  -17.2910 N   0  0  0  0  0  0  0  0  0  0  0  0
   -9.7980    6.2170  -17.9360 C   0  0  0  0  0  0  0  0  0  0  0  0
   -9.3540    7.3740  -17.2990 C   0  0  0  0  0  0  0  0  0  0  0  0
   -9.2040    8.5640  -18.0170 C   0  0  0  0  0  0  0  0  0  0  0  0
   -9.4910    8.6100  -19.3830 C   0  0  0  0  0  0  0  0  0  0  0  0
   -9.2770   10.1180  -20.1940 Cl  0  0  0  0  0  0  0  0  0  0  0  0
   -9.9310    7.4640  -20.0480 C   0  0  0  0  0  0  0  0  0  0  0  0
  -10.2450    7.4780  -21.5190 C   0  0  0  0  0  0  0  0  0  0  0  0
  -10.7390    6.2950  -21.9720 F   0  0  0  0  0  0  0  0  0  0  0  0
   -9.1650    7.7720  -22.2940 F   0  0  0  0  0  0  0  0  0  0  0  0
  -11.1860    8.4110  -21.8490 F   0  0  0  0  0  0  0  0  0  0  0  0
  -10.0780    6.2700  -19.3090 C   0  0  0  0  0  0  0  0  0  0  0  0
   -8.5010    2.0090  -14.4170 C   0  0  0  0  0  0  0  0  0  0  0  0
   -8.7830    3.1610  -13.7850 F   0  0  0  0  0  0  0  0  0  0  0  0
   -7.8390    1.0040  -13.7200 C   0  0  0  0  0  0  0  0  0  0  0  0
   -6.2930   -1.2060  -11.2880 C   0  0  0  0  0  0  0  0  0  0  0  0
   -6.7370   -1.4310   -9.9960 C   0  0  0  0  0  0  0  0  0  0  0  0
   -8.0090   -1.7590   -9.6870 N   0  0  0  0  0  0  0  0  0  0  0  0
  -12.1538   -1.6317   -7.8645 H   0  0  0  0  0  0  0  0  0  0  0  0
  -12.9126   -0.8664   -9.3017 H   0  0  0  0  0  0  0  0  0  0  0  0
  -12.5634   -2.6284   -9.3017 H   0  0  0  0  0  0  0  0  0  0  0  0
  -10.3250   -0.6440   -9.1330 H   0  0  0  0  0  0  0  0  0  0  0  0
   -9.2661   -1.7870  -12.8660 H   0  0  0  0  0  0  0  0  0  0  0  0
   -7.6374   -1.2975  -16.2307 H   0  0  0  0  0  0  0  0  0  0  0  0
   -8.8398    0.5147  -17.4606 H   0  0  0  0  0  0  0  0  0  0  0  0
  -10.5190    2.7700  -16.5870 H   0  0  0  0  0  0  0  0  0  0  0  0
  -10.9070    4.7510  -16.9930 H   0  0  0  0  0  0  0  0  0  0  0  0
   -9.1201    7.3508  -16.2244 H   0  0  0  0  0  0  0  0  0  0  0  0
   -8.8570    9.4718  -17.5017 H   0  0  0  0  0  0  0  0  0  0  0  0
  -10.4204    5.3595  -19.8226 H   0  0  0  0  0  0  0  0  0  0  0  0
   -7.5433    1.1546  -12.6713 H   0  0  0  0  0  0  0  0  0  0  0  0
   -5.2419   -0.9516  -11.4889 H   0  0  0  0  0  0  0  0  0  0  0  0
   -6.0115   -1.3370   -9.1745 H   0  0  0  0  0  0  0  0  0  0  0  0
  1  2  1  0
  2  3  1  0
  3  4  2  0
  3  5  1  0
  5  6  2  0
  6  7  1  0
  7  8  1  0
  8  9  1  0
  9 10  1  0
 10 11  2  0
 11 12  1  0
 12 13  1  0
 13 14  1  0
 14 15  2  0
 14 16  1  0
 16 17  1  0
 17 18  1  0
 18 19  2  0
 19 20  1  0
 20 21  1  0
 20 22  2  0
 22 23  1  0
 23 24  1  0
 23 25  1  0
 23 26  1  0
 22 27  1  0
 12 28  2  0
 28 29  1  0
 28 30  1  0
  7 31  2  0
 31 32  1  0
 32 33  2  0
 33  5  1  0
 30  9  2  0
 27 17  2  0
  1 34  1  0
  1 35  1  0
  1 36  1  0
  2 37  1  0
  6 38  1  0
 10 39  1  0
 11 40  1  0
 13 41  1  0
 16 42  1  0
 18 43  1  0
 19 44  1  0
 27 45  1  0
 30 46  1  0
 31 47  1  0
 32 48  1  0
M  END
>  <meeko>  (6) 
{"is_sidechain": false}

>  <vina_affinity_kcal_mol>  (6) 
-8.474

>  <pose_rank>  (6) 
6

$$$$

     RDKit          3D

 48 50  0  0  0  0  0  0  0  0999 V2000
  -10.1950    7.2330  -22.1690 C   0  0  0  0  0  0  0  0  0  0  0  0
  -10.3690    7.3140  -20.7450 N   0  0  0  0  0  0  0  0  0  0  0  0
   -9.4940    6.7260  -19.8560 C   0  0  0  0  0  0  0  0  0  0  0  0
   -8.4500    6.1720  -20.1830 O   0  0  0  0  0  0  0  0  0  0  0  0
   -9.9260    6.8040  -18.4230 C   0  0  0  0  0  0  0  0  0  0  0  0
  -10.8860    5.9270  -17.9460 C   0  0  0  0  0  0  0  0  0  0  0  0
  -11.2440    6.0340  -16.6080 C   0  0  0  0  0  0  0  0  0  0  0  0
  -12.2240    5.1810  -16.1540 O   0  0  0  0  0  0  0  0  0  0  0  0
  -11.9090    4.3550  -15.1010 C   0  0  0  0  0  0  0  0  0  0  0  0
  -10.6530    3.7580  -14.9560 C   0  0  0  0  0  0  0  0  0  0  0  0
  -10.3990    2.8980  -13.8800 C   0  0  0  0  0  0  0  0  0  0  0  0
  -11.4040    2.6210  -12.9520 C   0  0  0  0  0  0  0  0  0  0  0  0
  -11.2520    1.7630  -11.8410 N   0  0  0  0  0  0  0  0  0  0  0  0
  -11.1540    0.3820  -11.8480 C   0  0  0  0  0  0  0  0  0  0  0  0
  -11.1050   -0.3070  -12.8590 O   0  0  0  0  0  0  0  0  0  0  0  0
  -11.1210   -0.1050  -10.5490 N   0  0  0  0  0  0  0  0  0  0  0  0
  -10.9400   -1.4420  -10.1380 C   0  0  0  0  0  0  0  0  0  0  0  0
   -9.7250   -1.9680   -9.7030 C   0  0  0  0  0  0  0  0  0  0  0  0
   -9.6350   -3.3050   -9.3040 C   0  0  0  0  0  0  0  0  0  0  0  0
  -10.7600   -4.1310   -9.3320 C   0  0  0  0  0  0  0  0  0  0  0  0
  -10.5630   -5.7680   -8.8220 Cl  0  0  0  0  0  0  0  0  0  0  0  0
  -11.9920   -3.6290   -9.7580 C   0  0  0  0  0  0  0  0  0  0  0  0
  -13.2240   -4.4910   -9.7960 C   0  0  0  0  0  0  0  0  0  0  0  0
  -13.5920   -4.9520   -8.5700 F   0  0  0  0  0  0  0  0  0  0  0  0
  -13.0900   -5.5820  -10.5980 F   0  0  0  0  0  0  0  0  0  0  0  0
  -14.3180   -3.8270  -10.2730 F   0  0  0  0  0  0  0  0  0  0  0  0
  -12.0660   -2.2770  -10.1570 C   0  0  0  0  0  0  0  0  0  0  0  0
  -12.6650    3.2050  -13.1370 C   0  0  0  0  0  0  0  0  0  0  0  0
  -13.6500    2.9330  -12.2640 F   0  0  0  0  0  0  0  0  0  0  0  0
  -12.9280    4.0620  -14.2010 C   0  0  0  0  0  0  0  0  0  0  0  0
  -10.6730    7.0210  -15.8080 C   0  0  0  0  0  0  0  0  0  0  0  0
   -9.7230    7.8520  -16.3770 C   0  0  0  0  0  0  0  0  0  0  0  0
   -9.3280    7.7680  -17.6640 N   0  0  0  0  0  0  0  0  0  0  0  0
   -9.2188    6.7786  -22.3938 H   0  0  0  0  0  0  0  0  0  0  0  0
  -10.9955    6.6150  -22.6016 H   0  0  0  0  0  0  0  0  0  0  0  0
  -10.2374    8.2435  -22.6016 H   0  0  0  0  0  0  0  0  0  0  0  0
  -11.2450    7.6480  -20.3500 H   0  0  0  0  0  0  0  0  0  0  0  0
  -11.3476    5.1741  -18.6019 H   0  0  0  0  0  0  0  0  0  0  0  0
   -9.8606    3.9647  -15.6904 H   0  0  0  0  0  0  0  0  0  0  0  0
   -9.4054    2.4400  -13.7661 H   0  0  0  0  0  0  0  0  0  0  0  0
  -11.0460    2.2350  -10.9700 H   0  0  0  0  0  0  0  0  0  0  0  0
  -11.3790    0.5530   -9.8300 H   0  0  0  0  0  0  0  0  0  0  0  0
   -8.8313   -1.3274   -9.6734 H   0  0  0  0  0  0  0  0  0  0  0  0
   -8.6697   -3.7093   -8.9652 H   0  0  0  0  0  0  0  0  0  0  0  0
  -13.0311   -1.8684  -10.4911 H   0  0  0  0  0  0  0  0  0  0  0  0
  -13.9282    4.5018  -14.3286 H   0  0  0  0  0  0  0  0  0  0  0  0
  -10.9683    7.1368  -14.7547 H   0  0  0  0  0  0  0  0  0  0  0  0
   -9.2640    8.6251  -15.7432 H   0  0  0  0  0  0  0  0  0  0  0  0
  1  2  1  0
  2  3  1  0
  3  4  2  0
  3  5  1  0
  5  6  2  0
  6  7  1  0
  7  8  1  0
  8  9  1  0
  9 10  1  0
 10 11  2  0
 11 12  1  0
 12 13  1  0
 13 14  1  0
 14 15  2  0
 14 16  1  0
 16 17  1  0
 17 18  1  0
 18 19  2  0
 19 20  1  0
 20 21  1  0
 20 22  2  0
 22 23  1  0
 23 24  1  0
 23 25  1  0
 23 26  1  0
 22 27  1  0
 12 28  2  0
 28 29  1  0
 28 30  1  0
  7 31  2  0
 31 32  1  0
 32 33  2  0
 33  5  1  0
 30  9  2  0
 27 17  2  0
  1 34  1  0
  1 35  1  0
  1 36  1  0
  2 37  1  0
  6 38  1  0
 10 39  1  0
 11 40  1  0
 13 41  1  0
 16 42  1  0
 18 43  1  0
 19 44  1  0
 27 45  1  0
 30 46  1  0
 31 47  1  0
 32 48  1  0
M  END
>  <meeko>  (7) 
{"is_sidechain": false}

>  <vina_affinity_kcal_mol>  (7) 
-8.345

>  <pose_rank>  (7) 
7

$$$$

     RDKit          3D

 48 50  0  0  0  0  0  0  0  0999 V2000
  -12.7870   -7.5370   -9.7330 C   0  0  0  0  0  0  0  0  0  0  0  0
  -12.9080   -6.2160   -9.1810 N   0  0  0  0  0  0  0  0  0  0  0  0
  -13.6060   -5.9590   -8.0200 C   0  0  0  0  0  0  0  0  0  0  0  0
  -14.0990   -6.8260   -7.3060 O   0  0  0  0  0  0  0  0  0  0  0  0
  -13.7330   -4.5030   -7.6870 C   0  0  0  0  0  0  0  0  0  0  0  0
  -14.3030   -3.6360   -8.6050 C   0  0  0  0  0  0  0  0  0  0  0  0
  -14.4070   -2.2980   -8.2440 C   0  0  0  0  0  0  0  0  0  0  0  0
  -14.9420   -1.4400   -9.1780 O   0  0  0  0  0  0  0  0  0  0  0  0
  -14.0820   -0.5740   -9.8110 C   0  0  0  0  0  0  0  0  0  0  0  0
  -14.4680    0.7000  -10.2390 C   0  0  0  0  0  0  0  0  0  0  0  0
  -13.5570    1.5260  -10.9090 C   0  0  0  0  0  0  0  0  0  0  0  0
  -12.2610    1.0770  -11.1660 C   0  0  0  0  0  0  0  0  0  0  0  0
  -11.2740    1.8280  -11.8410 N   0  0  0  0  0  0  0  0  0  0  0  0
  -11.1590    2.0380  -13.2050 C   0  0  0  0  0  0  0  0  0  0  0  0
  -11.9680    1.6540  -14.0390 O   0  0  0  0  0  0  0  0  0  0  0  0
   -9.9960    2.7410  -13.4870 N   0  0  0  0  0  0  0  0  0  0  0  0
   -9.5680    3.2230  -14.7410 C   0  0  0  0  0  0  0  0  0  0  0  0
   -8.4770    2.7130  -15.4430 C   0  0  0  0  0  0  0  0  0  0  0  0
   -8.1260    3.2440  -16.6870 C   0  0  0  0  0  0  0  0  0  0  0  0
   -8.8640    4.2890  -17.2480 C   0  0  0  0  0  0  0  0  0  0  0  0
   -8.3640    4.8850  -18.7880 Cl  0  0  0  0  0  0  0  0  0  0  0  0
   -9.9660    4.8140  -16.5690 C   0  0  0  0  0  0  0  0  0  0  0  0
  -10.7850    5.9370  -17.1460 C   0  0  0  0  0  0  0  0  0  0  0  0
  -11.2880    5.6530  -18.3780 F   0  0  0  0  0  0  0  0  0  0  0  0
  -10.0880    7.1000  -17.2680 F   0  0  0  0  0  0  0  0  0  0  0  0
  -11.8700    6.2480  -16.3780 F   0  0  0  0  0  0  0  0  0  0  0  0
  -10.3070    4.2670  -15.3140 C   0  0  0  0  0  0  0  0  0  0  0  0
  -11.9080   -0.2170  -10.7570 C   0  0  0  0  0  0  0  0  0  0  0  0
  -10.6700   -0.6720  -11.0140 F   0  0  0  0  0  0  0  0  0  0  0  0
  -12.8030   -1.0450  -10.0890 C   0  0  0  0  0  0  0  0  0  0  0  0
  -13.9120   -1.8640   -7.0170 C   0  0  0  0  0  0  0  0  0  0  0  0
  -13.3570   -2.8070   -6.1670 C   0  0  0  0  0  0  0  0  0  0  0  0
  -13.2580   -4.1190   -6.4670 N   0  0  0  0  0  0  0  0  0  0  0  0
  -12.7198   -8.2709   -8.9164 H   0  0  0  0  0  0  0  0  0  0  0  0
  -13.6687   -7.7577  -10.3526 H   0  0  0  0  0  0  0  0  0  0  0  0
  -11.8799   -7.5938  -10.3526 H   0  0  0  0  0  0  0  0  0  0  0  0
  -12.6400   -5.4020   -9.7280 H   0  0  0  0  0  0  0  0  0  0  0  0
  -14.6597   -3.9930   -9.5824 H   0  0  0  0  0  0  0  0  0  0  0  0
  -15.4916    1.0549  -10.0486 H   0  0  0  0  0  0  0  0  0  0  0  0
  -13.8638    2.5313  -11.2335 H   0  0  0  0  0  0  0  0  0  0  0  0
  -10.6830    2.3850  -11.2370 H   0  0  0  0  0  0  0  0  0  0  0  0
   -9.3300    2.8050  -12.7320 H   0  0  0  0  0  0  0  0  0  0  0  0
   -7.8889    1.8877  -15.0152 H   0  0  0  0  0  0  0  0  0  0  0  0
   -7.2607    2.8354  -17.2294 H   0  0  0  0  0  0  0  0  0  0  0  0
  -11.1749    4.6701  -14.7715 H   0  0  0  0  0  0  0  0  0  0  0  0
  -12.5038   -2.0588   -9.7845 H   0  0  0  0  0  0  0  0  0  0  0  0
  -13.9602   -0.8030   -6.7307 H   0  0  0  0  0  0  0  0  0  0  0  0
  -12.9756   -2.4671   -5.1928 H   0  0  0  0  0  0  0  0  0  0  0  0
  1  2  1  0
  2  3  1  0
  3  4  2  0
  3  5  1  0
  5  6  2  0
  6  7  1  0
  7  8  1  0
  8  9  1  0
  9 10  1  0
 10 11  2  0
 11 12  1  0
 12 13  1  0
 13 14  1  0
 14 15  2  0
 14 16  1  0
 16 17  1  0
 17 18  1  0
 18 19  2  0
 19 20  1  0
 20 21  1  0
 20 22  2  0
 22 23  1  0
 23 24  1  0
 23 25  1  0
 23 26  1  0
 22 27  1  0
 12 28  2  0
 28 29  1  0
 28 30  1  0
  7 31  2  0
 31 32  1  0
 32 33  2  0
 33  5  1  0
 30  9  2  0
 27 17  2  0
  1 34  1  0
  1 35  1  0
  1 36  1  0
  2 37  1  0
  6 38  1  0
 10 39  1  0
 11 40  1  0
 13 41  1  0
 16 42  1  0
 18 43  1  0
 19 44  1  0
 27 45  1  0
 30 46  1  0
 31 47  1  0
 32 48  1  0
M  END
>  <meeko>  (8) 
{"is_sidechain": false}

>  <vina_affinity_kcal_mol>  (8) 
-8.326

>  <pose_rank>  (8) 
8

$$$$

     RDKit          3D

 48 50  0  0  0  0  0  0  0  0999 V2000
  -10.5620   -1.1520   -4.2920 C   0  0  0  0  0  0  0  0  0  0  0  0
  -11.7210   -1.1380   -5.1410 N   0  0  0  0  0  0  0  0  0  0  0  0
  -12.9640   -0.7440   -4.6920 C   0  0  0  0  0  0  0  0  0  0  0  0
  -13.1790   -0.2830   -3.5760 O   0  0  0  0  0  0  0  0  0  0  0  0
  -14.0680   -0.9350   -5.6880 C   0  0  0  0  0  0  0  0  0  0  0  0
  -13.7660   -1.3250   -6.9820 C   0  0  0  0  0  0  0  0  0  0  0  0
  -14.8250   -1.4970   -7.8630 C   0  0  0  0  0  0  0  0  0  0  0  0
  -14.5100   -1.8500   -9.1560 O   0  0  0  0  0  0  0  0  0  0  0  0
  -13.6400   -1.0350   -9.8420 C   0  0  0  0  0  0  0  0  0  0  0  0
  -12.3130   -1.3910  -10.1000 C   0  0  0  0  0  0  0  0  0  0  0  0
  -11.4620   -0.5060  -10.7740 C   0  0  0  0  0  0  0  0  0  0  0  0
  -11.9310    0.7430  -11.1810 C   0  0  0  0  0  0  0  0  0  0  0  0
  -11.1530    1.7080  -11.8580 N   0  0  0  0  0  0  0  0  0  0  0  0
  -11.1020    1.9460  -13.2210 C   0  0  0  0  0  0  0  0  0  0  0  0
  -11.8070    1.3890  -14.0510 O   0  0  0  0  0  0  0  0  0  0  0  0
  -10.1390    2.9030  -13.5070 N   0  0  0  0  0  0  0  0  0  0  0  0
   -9.8460    3.4780  -14.7610 C   0  0  0  0  0  0  0  0  0  0  0  0
  -10.6720    4.3900  -15.4150 C   0  0  0  0  0  0  0  0  0  0  0  0
  -10.3010    4.9190  -16.6540 C   0  0  0  0  0  0  0  0  0  0  0  0
   -9.0960    4.5460  -17.2530 C   0  0  0  0  0  0  0  0  0  0  0  0
   -8.7120    5.2470  -18.7820 Cl  0  0  0  0  0  0  0  0  0  0  0  0
   -8.2450    3.6400  -16.6160 C   0  0  0  0  0  0  0  0  0  0  0  0
   -6.9380    3.2210  -17.2320 C   0  0  0  0  0  0  0  0  0  0  0  0
   -6.1140    4.2690  -17.5030 F   0  0  0  0  0  0  0  0  0  0  0  0
   -7.0900    2.5330  -18.3970 F   0  0  0  0  0  0  0  0  0  0  0  0
   -6.2130    2.3950  -16.4200 F   0  0  0  0  0  0  0  0  0  0  0  0
   -8.6350    3.1140  -15.3660 C   0  0  0  0  0  0  0  0  0  0  0  0
  -13.2560    1.0910  -10.8820 C   0  0  0  0  0  0  0  0  0  0  0  0
  -13.7180    2.2990  -11.2490 F   0  0  0  0  0  0  0  0  0  0  0  0
  -14.1110    0.2200  -10.2150 C   0  0  0  0  0  0  0  0  0  0  0  0
  -16.1300   -1.2430   -7.4480 C   0  0  0  0  0  0  0  0  0  0  0  0
  -16.3310   -0.8550   -6.1340 C   0  0  0  0  0  0  0  0  0  0  0  0
  -15.3340   -0.6980   -5.2370 N   0  0  0  0  0  0  0  0  0  0  0  0
  -10.8790   -1.1482   -3.2387 H   0  0  0  0  0  0  0  0  0  0  0  0
   -9.9707   -2.0574   -4.4937 H   0  0  0  0  0  0  0  0  0  0  0  0
   -9.9490   -0.2612   -4.4937 H   0  0  0  0  0  0  0  0  0  0  0  0
  -11.7010   -1.5960   -6.0480 H   0  0  0  0  0  0  0  0  0  0  0  0
  -12.7263   -1.4922   -7.2998 H   0  0  0  0  0  0  0  0  0  0  0  0
  -11.9354   -2.3708   -9.7721 H   0  0  0  0  0  0  0  0  0  0  0  0
  -10.4218   -0.7965  -10.9828 H   0  0  0  0  0  0  0  0  0  0  0  0
  -10.7030    2.3850  -11.2540 H   0  0  0  0  0  0  0  0  0  0  0  0
   -9.5000    3.1170  -12.7560 H   0  0  0  0  0  0  0  0  0  0  0  0
  -11.6223    4.6955  -14.9529 H   0  0  0  0  0  0  0  0  0  0  0  0
  -10.9637    5.6352  -17.1617 H   0  0  0  0  0  0  0  0  0  0  0  0
   -7.9725    2.4008  -14.8538 H   0  0  0  0  0  0  0  0  0  0  0  0
  -15.1445    0.5190   -9.9857 H   0  0  0  0  0  0  0  0  0  0  0  0
  -16.9759   -1.3475   -8.1434 H   0  0  0  0  0  0  0  0  0  0  0  0
  -17.3621   -0.6637   -5.8019 H   0  0  0  0  0  0  0  0  0  0  0  0
  1  2  1  0
  2  3  1  0
  3  4  2  0
  3  5  1  0
  5  6  2  0
  6  7  1  0
  7  8  1  0
  8  9  1  0
  9 10  1  0
 10 11  2  0
 11 12  1  0
 12 13  1  0
 13 14  1  0
 14 15  2  0
 14 16  1  0
 16 17  1  0
 17 18  1  0
 18 19  2  0
 19 20  1  0
 20 21  1  0
 20 22  2  0
 22 23  1  0
 23 24  1  0
 23 25  1  0
 23 26  1  0
 22 27  1  0
 12 28  2  0
 28 29  1  0
 28 30  1  0
  7 31  2  0
 31 32  1  0
 32 33  2  0
 33  5  1  0
 30  9  2  0
 27 17  2  0
  1 34  1  0
  1 35  1  0
  1 36  1  0
  2 37  1  0
  6 38  1  0
 10 39  1  0
 11 40  1  0
 13 41  1  0
 16 42  1  0
 18 43  1  0
 19 44  1  0
 27 45  1  0
 30 46  1  0
 31 47  1  0
 32 48  1  0
M  END
>  <meeko>  (9) 
{"is_sidechain": false}

>  <vina_affinity_kcal_mol>  (9) 
-8.178

>  <pose_rank>  (9) 
9

$$$$

     RDKit          3D

 48 50  0  0  0  0  0  0  0  0999 V2000
  -10.6170    6.1430  -18.7570 C   0  0  0  0  0  0  0  0  0  0  0  0
   -9.5850    5.3710  -18.1230 N   0  0  0  0  0  0  0  0  0  0  0  0
   -8.3040    5.2880  -18.6290 C   0  0  0  0  0  0  0  0  0  0  0  0
   -7.9020    5.9290  -19.5940 O   0  0  0  0  0  0  0  0  0  0  0  0
   -7.4160    4.3230  -17.9030 C   0  0  0  0  0  0  0  0  0  0  0  0
   -7.8310    3.0150  -17.7140 C   0  0  0  0  0  0  0  0  0  0  0  0
   -6.9670    2.1590  -17.0440 C   0  0  0  0  0  0  0  0  0  0  0  0
   -7.4050    0.8710  -16.8320 O   0  0  0  0  0  0  0  0  0  0  0  0
   -7.9220    0.5730  -15.5930 C   0  0  0  0  0  0  0  0  0  0  0  0
   -7.1860   -0.0860  -14.6040 C   0  0  0  0  0  0  0  0  0  0  0  0
   -7.7760   -0.3940  -13.3710 C   0  0  0  0  0  0  0  0  0  0  0  0
   -9.1080   -0.0560  -13.1280 C   0  0  0  0  0  0  0  0  0  0  0  0
   -9.7950   -0.3300  -11.9250 N   0  0  0  0  0  0  0  0  0  0  0  0
  -10.5740   -1.4370  -11.6310 C   0  0  0  0  0  0  0  0  0  0  0  0
  -10.7160   -2.4030  -12.3690 O   0  0  0  0  0  0  0  0  0  0  0  0
  -11.1670   -1.2910  -10.3850 N   0  0  0  0  0  0  0  0  0  0  0  0
  -11.9580   -2.2330   -9.6960 C   0  0  0  0  0  0  0  0  0  0  0  0
  -11.5660   -3.5460   -9.4410 C   0  0  0  0  0  0  0  0  0  0  0  0
  -12.4090   -4.4130   -8.7420 C   0  0  0  0  0  0  0  0  0  0  0  0
  -13.6540   -3.9770   -8.2830 C   0  0  0  0  0  0  0  0  0  0  0  0
  -14.6330   -5.1110   -7.4260 Cl  0  0  0  0  0  0  0  0  0  0  0  0
  -14.0700   -2.6640   -8.5180 C   0  0  0  0  0  0  0  0  0  0  0  0
  -15.4020   -2.1610   -8.0340 C   0  0  0  0  0  0  0  0  0  0  0  0
  -15.5680   -2.2950   -6.6900 F   0  0  0  0  0  0  0  0  0  0  0  0
  -16.4570   -2.7890   -8.6210 F   0  0  0  0  0  0  0  0  0  0  0  0
  -15.5890   -0.8330   -8.2880 F   0  0  0  0  0  0  0  0  0  0  0  0
  -13.2060   -1.8010   -9.2260 C   0  0  0  0  0  0  0  0  0  0  0  0
   -9.8350    0.5740  -14.1470 C   0  0  0  0  0  0  0  0  0  0  0  0
  -11.1250    0.8890  -13.9360 F   0  0  0  0  0  0  0  0  0  0  0  0
   -9.2590    0.8870  -15.3740 C   0  0  0  0  0  0  0  0  0  0  0  0
   -5.7530    2.6320  -16.5540 C   0  0  0  0  0  0  0  0  0  0  0  0
   -5.4270    3.9570  -16.7910 C   0  0  0  0  0  0  0  0  0  0  0  0
   -6.2240    4.8180  -17.4580 N   0  0  0  0  0  0  0  0  0  0  0  0
  -11.2470    6.6143  -17.9883 H   0  0  0  0  0  0  0  0  0  0  0  0
  -10.1592    6.9222  -19.3841 H   0  0  0  0  0  0  0  0  0  0  0  0
  -11.2352    5.4838  -19.3841 H   0  0  0  0  0  0  0  0  0  0  0  0
   -9.8140    4.7110  -17.3840 H   0  0  0  0  0  0  0  0  0  0  0  0
   -8.8081    2.6675  -18.0808 H   0  0  0  0  0  0  0  0  0  0  0  0
   -6.1389   -0.3640  -14.7946 H   0  0  0  0  0  0  0  0  0  0  0  0
   -7.1882   -0.9032  -12.5931 H   0  0  0  0  0  0  0  0  0  0  0  0
   -9.5620    0.2870  -11.1570 H   0  0  0  0  0  0  0  0  0  0  0  0
  -11.1290   -0.3640   -9.9900 H   0  0  0  0  0  0  0  0  0  0  0  0
  -10.5863   -3.9018   -9.7926 H   0  0  0  0  0  0  0  0  0  0  0  0
  -12.0896   -5.4482   -8.5513 H   0  0  0  0  0  0  0  0  0  0  0  0
  -13.5199   -0.7636   -9.4136 H   0  0  0  0  0  0  0  0  0  0  0  0
   -9.8529    1.3761  -16.1602 H   0  0  0  0  0  0  0  0  0  0  0  0
   -5.0726    1.9728  -15.9950 H   0  0  0  0  0  0  0  0  0  0  0  0
   -4.4630    4.3290  -16.4139 H   0  0  0  0  0  0  0  0  0  0  0  0
  1  2  1  0
  2  3  1  0
  3  4  2  0
  3  5  1  0
  5  6  2  0
  6  7  1  0
  7  8  1  0
  8  9  1  0
  9 10  1  0
 10 11  2  0
 11 12  1  0
 12 13  1  0
 13 14  1  0
 14 15  2  0
 14 16  1  0
 16 17  1  0
 17 18  1  0
 18 19  2  0
 19 20  1  0
 20 21  1  0
 20 22  2  0
 22 23  1  0
 23 24  1  0
 23 25  1  0
 23 26  1  0
 22 27  1  0
 12 28  2  0
 28 29  1  0
 28 30  1  0
  7 31  2  0
 31 32  1  0
 32 33  2  0
 33  5  1  0
 30  9  2  0
 27 17  2  0
  1 34  1  0
  1 35  1  0
  1 36  1  0
  2 37  1  0
  6 38  1  0
 10 39  1  0
 11 40  1  0
 13 41  1  0
 16 42  1  0
 18 43  1  0
 19 44  1  0
 27 45  1  0
 30 46  1  0
 31 47  1  0
 32 48  1  0
M  END
>  <meeko>  (10) 
{"is_sidechain": false}

>  <vina_affinity_kcal_mol>  (10) 
-8.114

>  <pose_rank>  (10) 
10

$$$$
