
     RDKit          3D

 62 67  0  0  0  0  0  0  0  0999 V2000
    7.7828    2.5483    1.0768 C   0  0  0  0  0  0  0  0  0  0  0  0
    7.5629    1.1124    1.5312 C   0  0  0  0  0  0  0  0  0  0  0  0
    6.3433    0.4486    0.8904 C   0  0  0  0  0  0  0  0  0  0  0  0
    5.1799    1.1889    1.2655 O   0  0  0  0  0  0  0  0  0  0  0  0
    3.9806    0.7870    0.7436 C   0  0  0  0  0  0  0  0  0  0  0  0
    3.7701   -0.3391   -0.0490 C   0  0  0  0  0  0  0  0  0  0  0  0
    2.4931   -0.6646   -0.5359 C   0  0  0  0  0  0  0  0  0  0  0  0
    1.4217    0.1881   -0.2199 C   0  0  0  0  0  0  0  0  0  0  0  0
    1.6140    1.2936    0.6150 C   0  0  0  0  0  0  0  0  0  0  0  0
    2.8993    1.6031    1.0871 C   0  0  0  0  0  0  0  0  0  0  0  0
    0.4377    1.9361    0.8827 N   0  0  0  0  0  0  0  0  0  0  0  0
   -0.4723    1.2485    0.2346 C   0  0  0  0  0  0  0  0  0  0  0  0
    0.0588    0.2099   -0.5057 N   0  0  0  0  0  0  0  0  0  0  0  0
   -0.7358   -0.6103   -1.3591 C   0  0  0  0  0  0  0  0  0  0  0  0
   -0.1751   -1.4172   -2.3307 C   0  0  0  0  0  0  0  0  0  0  0  0
   -1.0257   -2.1824   -3.1240 C   0  0  0  0  0  0  0  0  0  0  0  0
   -2.4125   -2.1215   -2.9428 C   0  0  0  0  0  0  0  0  0  0  0  0
   -3.2675   -2.8848   -3.7497 C   0  0  0  0  0  0  0  0  0  0  0  0
   -4.6427   -2.8075   -3.5813 C   0  0  0  0  0  0  0  0  0  0  0  0
   -5.1714   -1.9679   -2.6047 C   0  0  0  0  0  0  0  0  0  0  0  0
   -4.3391   -1.1931   -1.7720 C   0  0  0  0  0  0  0  0  0  0  0  0
   -4.8921   -0.3409   -0.7792 N   0  0  0  0  0  0  0  0  0  0  0  0
   -4.6089   -0.7946    0.5927 C   0  0  0  0  0  0  0  0  0  0  0  0
   -4.8246    0.3628    1.5678 C   0  0  0  0  0  0  0  0  0  0  0  0
   -6.2062    1.0129    1.4234 C   0  0  0  0  0  0  0  0  0  0  0  0
   -7.2738    0.1723    1.9819 N   0  0  0  0  0  0  0  0  0  0  0  0
   -6.4871    1.3577   -0.0432 C   0  0  0  0  0  0  0  0  0  0  0  0
   -6.2521    0.1732   -0.9785 C   0  0  0  0  0  0  0  0  0  0  0  0
   -2.9279   -1.2666   -1.9450 C   0  0  0  0  0  0  0  0  0  0  0  0
   -2.0797   -0.5269   -1.1881 N   0  0  0  0  0  0  0  0  0  0  0  0
    8.8226    0.2297    1.4656 C   0  0  0  0  0  0  0  0  0  0  0  0
    8.6435   -0.1847    2.8425 O   0  0  0  0  0  0  0  0  0  0  0  0
    7.6703    0.8725    3.0485 C   0  0  0  0  0  0  0  0  0  0  0  0
    6.9400    3.1872    1.3607 H   0  0  0  0  0  0  0  0  0  0  0  0
    8.6849    2.9790    1.5255 H   0  0  0  0  0  0  0  0  0  0  0  0
    7.8967    2.6006   -0.0113 H   0  0  0  0  0  0  0  0  0  0  0  0
    6.2468   -0.5879    1.2383 H   0  0  0  0  0  0  0  0  0  0  0  0
    6.4555    0.4542   -0.2012 H   0  0  0  0  0  0  0  0  0  0  0  0
    4.5853   -1.0102   -0.3036 H   0  0  0  0  0  0  0  0  0  0  0  0
    2.3696   -1.5748   -1.1096 H   0  0  0  0  0  0  0  0  0  0  0  0
    3.0382    2.4684    1.7269 H   0  0  0  0  0  0  0  0  0  0  0  0
   -1.5333    1.4679    0.2279 H   0  0  0  0  0  0  0  0  0  0  0  0
    0.8831   -1.4427   -2.5433 H   0  0  0  0  0  0  0  0  0  0  0  0
   -0.5976   -2.8142   -3.8993 H   0  0  0  0  0  0  0  0  0  0  0  0
   -2.8666   -3.5410   -4.5191 H   0  0  0  0  0  0  0  0  0  0  0  0
   -5.3056   -3.3986   -4.2080 H   0  0  0  0  0  0  0  0  0  0  0  0
   -6.2509   -1.9420   -2.4920 H   0  0  0  0  0  0  0  0  0  0  0  0
   -3.5812   -1.1520    0.7175 H   0  0  0  0  0  0  0  0  0  0  0  0
   -5.2650   -1.6369    0.8469 H   0  0  0  0  0  0  0  0  0  0  0  0
   -4.0602    1.1282    1.3781 H   0  0  0  0  0  0  0  0  0  0  0  0
   -4.6669    0.0160    2.5962 H   0  0  0  0  0  0  0  0  0  0  0  0
   -6.2110    1.9464    1.9989 H   0  0  0  0  0  0  0  0  0  0  0  0
   -7.0950    0.0166    2.9742 H   0  0  0  0  0  0  0  0  0  0  0  0
   -7.2693   -0.7491    1.5487 H   0  0  0  0  0  0  0  0  0  0  0  0
   -7.5124    1.7285   -0.1635 H   0  0  0  0  0  0  0  0  0  0  0  0
   -5.8228    2.1803   -0.3404 H   0  0  0  0  0  0  0  0  0  0  0  0
   -6.3822    0.5242   -2.0098 H   0  0  0  0  0  0  0  0  0  0  0  0
   -6.9974   -0.6091   -0.7902 H   0  0  0  0  0  0  0  0  0  0  0  0
    8.7829   -0.6210    0.7786 H   0  0  0  0  0  0  0  0  0  0  0  0
    9.7774    0.7505    1.3375 H   0  0  0  0  0  0  0  0  0  0  0  0
    6.7706    0.5003    3.5472 H   0  0  0  0  0  0  0  0  0  0  0  0
    8.1003    1.6879    3.6396 H   0  0  0  0  0  0  0  0  0  0  0  0
  1  2  1  0
  2  3  1  0
  3  4  1  0
  4  5  1  0
  5  6  2  0
  6  7  1  0
  7  8  2  0
  8  9  1  0
  9 10  2  0
  9 11  1  0
 11 12  2  0
 12 13  1  0
 13 14  1  0
 14 15  1  0
 15 16  2  0
 16 17  1  0
 17 18  2  0
 18 19  1  0
 19 20  2  0
 20 21  1  0
 21 22  1  0
 22 23  1  0
 23 24  1  0
 24 25  1  0
 25 26  1  0
 25 27  1  0
 27 28  1  0
 21 29  2  0
 29 30  1  0
  2 31  1  0
 31 32  1  0
 32 33  1  0
 33  2  1  0
 10  5  1  0
 30 14  2  0
 13  8  1  0
 29 17  1  0
 28 22  1  0
  1 34  1  0
  1 35  1  0
  1 36  1  0
  3 37  1  0
  3 38  1  0
  6 39  1  0
  7 40  1  0
 10 41  1  0
 12 42  1  0
 15 43  1  0
 16 44  1  0
 18 45  1  0
 19 46  1  0
 20 47  1  0
 23 48  1  0
 23 49  1  0
 24 50  1  0
 24 51  1  0
 25 52  1  0
 26 53  1  0
 26 54  1  0
 27 55  1  0
 27 56  1  0
 28 57  1  0
 28 58  1  0
 31 59  1  0
 31 60  1  0
 33 61  1  0
 33 62  1  0
M  END
$$$$
