
     RDKit          3D

 62 67  0  0  0  0  0  0  0  0999 V2000
  -41.3950  160.6810   -0.1480 C   0  0  0  0  0  0  0  0  0  0  0  0
  -39.9980  160.1430    0.1310 C   0  0  0  0  0  0  0  0  0  0  0  0
  -38.8880  161.1630   -0.1290 C   0  0  0  0  0  0  0  0  0  0  0  0
  -39.4310  162.2280   -0.9120 O   0  0  0  0  0  0  0  0  0  0  0  0
  -39.1110  162.2600   -2.2420 C   0  0  0  0  0  0  0  0  0  0  0  0
  -38.9820  161.1540   -3.0790 C   0  0  0  0  0  0  0  0  0  0  0  0
  -38.6490  161.2960   -4.4370 C   0  0  0  0  0  0  0  0  0  0  0  0
  -38.4260  162.5900   -4.9360 C   0  0  0  0  0  0  0  0  0  0  0  0
  -38.5990  163.7100   -4.1160 C   0  0  0  0  0  0  0  0  0  0  0  0
  -38.9290  163.5450   -2.7620 C   0  0  0  0  0  0  0  0  0  0  0  0
  -38.4350  164.8760   -4.8090 N   0  0  0  0  0  0  0  0  0  0  0  0
  -38.1680  164.4980   -6.0370 C   0  0  0  0  0  0  0  0  0  0  0  0
  -38.0850  163.1260   -6.1760 N   0  0  0  0  0  0  0  0  0  0  0  0
  -37.7150  162.4990   -7.4010 C   0  0  0  0  0  0  0  0  0  0  0  0
  -37.6800  161.1240   -7.5400 C   0  0  0  0  0  0  0  0  0  0  0  0
  -37.3020  160.5950   -8.7710 C   0  0  0  0  0  0  0  0  0  0  0  0
  -36.9560  161.4410   -9.8320 C   0  0  0  0  0  0  0  0  0  0  0  0
  -36.5670  160.9040  -11.0670 C   0  0  0  0  0  0  0  0  0  0  0  0
  -36.2060  161.7450  -12.1110 C   0  0  0  0  0  0  0  0  0  0  0  0
  -36.2350  163.1240  -11.9270 C   0  0  0  0  0  0  0  0  0  0  0  0
  -36.6300  163.6950  -10.7000 C   0  0  0  0  0  0  0  0  0  0  0  0
  -36.6550  165.1040  -10.5270 N   0  0  0  0  0  0  0  0  0  0  0  0
  -37.9750  165.6110  -10.1150 C   0  0  0  0  0  0  0  0  0  0  0  0
  -37.8210  167.0120   -9.5220 C   0  0  0  0  0  0  0  0  0  0  0  0
  -37.0720  167.9730  -10.4540 C   0  0  0  0  0  0  0  0  0  0  0  0
  -37.9030  168.4020  -11.5880 N   0  0  0  0  0  0  0  0  0  0  0  0
  -35.7630  167.3420  -10.9380 C   0  0  0  0  0  0  0  0  0  0  0  0
  -35.9660  165.9420  -11.5150 C   0  0  0  0  0  0  0  0  0  0  0  0
  -36.9960  162.8360   -9.6260 C   0  0  0  0  0  0  0  0  0  0  0  0
  -37.3620  163.3280   -8.4160 N   0  0  0  0  0  0  0  0  0  0  0  0
  -39.8530  159.4390    1.4920 C   0  0  0  0  0  0  0  0  0  0  0  0
  -39.2760  158.2690    0.8630 O   0  0  0  0  0  0  0  0  0  0  0  0
  -39.7000  158.7460   -0.4430 C   0  0  0  0  0  0  0  0  0  0  0  0
  -41.9087  160.8788    0.8044 H   0  0  0  0  0  0  0  0  0  0  0  0
  -41.3199  161.6145   -0.7249 H   0  0  0  0  0  0  0  0  0  0  0  0
  -41.9655  159.9383   -0.7249 H   0  0  0  0  0  0  0  0  0  0  0  0
  -38.5142  161.5577    0.8273 H   0  0  0  0  0  0  0  0  0  0  0  0
  -38.0536  160.6865   -0.6645 H   0  0  0  0  0  0  0  0  0  0  0  0
  -39.1444  160.1468   -2.6678 H   0  0  0  0  0  0  0  0  0  0  0  0
  -38.5652  160.4165   -5.0923 H   0  0  0  0  0  0  0  0  0  0  0  0
  -39.0442  164.4245   -2.1114 H   0  0  0  0  0  0  0  0  0  0  0  0
  -38.0249  165.2016   -6.8704 H   0  0  0  0  0  0  0  0  0  0  0  0
  -37.9440  160.4650   -6.6997 H   0  0  0  0  0  0  0  0  0  0  0  0
  -37.2749  159.5043   -8.9113 H   0  0  0  0  0  0  0  0  0  0  0  0
  -36.5477  159.8134  -11.2094 H   0  0  0  0  0  0  0  0  0  0  0  0
  -35.8985  161.3231  -13.0792 H   0  0  0  0  0  0  0  0  0  0  0  0
  -35.9431  163.7834  -12.7576 H   0  0  0  0  0  0  0  0  0  0  0  0
  -38.6404  165.6543  -10.9898 H   0  0  0  0  0  0  0  0  0  0  0  0
  -38.4063  164.9384   -9.3590 H   0  0  0  0  0  0  0  0  0  0  0  0
  -38.8224  167.4224   -9.3252 H   0  0  0  0  0  0  0  0  0  0  0  0
  -37.2300  166.9178   -8.5991 H   0  0  0  0  0  0  0  0  0  0  0  0
  -36.8314  168.8759   -9.8736 H   0  0  0  0  0  0  0  0  0  0  0  0
  -37.3000  168.6370  -12.3760 H   0  0  0  0  0  0  0  0  0  0  0  0
  -38.4100  169.2550  -11.3590 H   0  0  0  0  0  0  0  0  0  0  0  0
  -35.3286  167.9851  -11.7175 H   0  0  0  0  0  0  0  0  0  0  0  0
  -35.0946  167.2514  -10.0691 H   0  0  0  0  0  0  0  0  0  0  0  0
  -36.5738  166.0064  -12.4296 H   0  0  0  0  0  0  0  0  0  0  0  0
  -34.9888  165.4983  -11.7563 H   0  0  0  0  0  0  0  0  0  0  0  0
  -39.1710  159.9515    2.1864 H   0  0  0  0  0  0  0  0  0  0  0  0
  -40.7313  159.3293    2.1451 H   0  0  0  0  0  0  0  0  0  0  0  0
  -38.9022  158.7372   -1.2002 H   0  0  0  0  0  0  0  0  0  0  0  0
  -40.4812  158.2039   -0.9961 H   0  0  0  0  0  0  0  0  0  0  0  0
  1  2  1  0
  2  3  1  0
  3  4  1  0
  4  5  1  0
  5  6  2  0
  6  7  1  0
  7  8  2  0
  8  9  1  0
  9 10  2  0
  9 11  1  0
 11 12  2  0
 12 13  1  0
 13 14  1  0
 14 15  1  0
 15 16  2  0
 16 17  1  0
 17 18  2  0
 18 19  1  0
 19 20  2  0
 20 21  1  0
 21 22  1  0
 22 23  1  0
 23 24  1  0
 24 25  1  0
 25 26  1  0
 25 27  1  0
 27 28  1  0
 21 29  2  0
 29 30  1  0
  2 31  1  0
 31 32  1  0
 32 33  1  0
 33  2  1  0
 10  5  1  0
 30 14  2  0
 13  8  1  0
 29 17  1  0
 28 22  1  0
  1 34  1  0
  1 35  1  0
  1 36  1  0
  3 37  1  0
  3 38  1  0
  6 39  1  0
  7 40  1  0
 10 41  1  0
 12 42  1  0
 15 43  1  0
 16 44  1  0
 18 45  1  0
 19 46  1  0
 20 47  1  0
 23 48  1  0
 23 49  1  0
 24 50  1  0
 24 51  1  0
 25 52  1  0
 26 53  1  0
 26 54  1  0
 27 55  1  0
 27 56  1  0
 28 57  1  0
 28 58  1  0
 31 59  1  0
 31 60  1  0
 33 61  1  0
 33 62  1  0
M  END
>  <meeko>  (1) 
{"is_sidechain": false}

>  <vina_affinity_kcal_mol>  (1) 
-9.915

>  <pose_rank>  (1) 
1

$$$$

     RDKit          3D

 62 67  0  0  0  0  0  0  0  0999 V2000
  -40.9050  159.6580    0.8340 C   0  0  0  0  0  0  0  0  0  0  0  0
  -39.3880  159.5670    0.9190 C   0  0  0  0  0  0  0  0  0  0  0  0
  -38.6790  160.8860    0.6080 C   0  0  0  0  0  0  0  0  0  0  0  0
  -39.6060  161.7490   -0.0530 O   0  0  0  0  0  0  0  0  0  0  0  0
  -39.3250  162.1050   -1.3440 C   0  0  0  0  0  0  0  0  0  0  0  0
  -38.9710  163.3790   -1.7830 C   0  0  0  0  0  0  0  0  0  0  0  0
  -38.7010  163.6400   -3.1370 C   0  0  0  0  0  0  0  0  0  0  0  0
  -38.8150  162.5820   -4.0550 C   0  0  0  0  0  0  0  0  0  0  0  0
  -39.1230  161.2890   -3.6180 C   0  0  0  0  0  0  0  0  0  0  0  0
  -39.3920  161.0520   -2.2610 C   0  0  0  0  0  0  0  0  0  0  0  0
  -39.0880  160.3870   -4.6430 N   0  0  0  0  0  0  0  0  0  0  0  0
  -38.7630  161.0950   -5.6990 C   0  0  0  0  0  0  0  0  0  0  0  0
  -38.6420  162.4440   -5.4300 N   0  0  0  0  0  0  0  0  0  0  0  0
  -38.3850  163.4100   -6.4470 C   0  0  0  0  0  0  0  0  0  0  0  0
  -38.4950  164.7680   -6.2130 C   0  0  0  0  0  0  0  0  0  0  0  0
  -38.2320  165.6410   -7.2650 C   0  0  0  0  0  0  0  0  0  0  0  0
  -37.8760  165.1490   -8.5260 C   0  0  0  0  0  0  0  0  0  0  0  0
  -37.6220  166.0310   -9.5850 C   0  0  0  0  0  0  0  0  0  0  0  0
  -37.2890  165.5380  -10.8400 C   0  0  0  0  0  0  0  0  0  0  0  0
  -37.2080  164.1640  -11.0420 C   0  0  0  0  0  0  0  0  0  0  0  0
  -37.4500  163.2510   -9.9960 C   0  0  0  0  0  0  0  0  0  0  0  0
  -37.3630  161.8510  -10.2160 N   0  0  0  0  0  0  0  0  0  0  0  0
  -36.4730  161.1710   -9.2600 C   0  0  0  0  0  0  0  0  0  0  0  0
  -36.7730  159.6710   -9.2610 C   0  0  0  0  0  0  0  0  0  0  0  0
  -36.7280  159.0570  -10.6660 C   0  0  0  0  0  0  0  0  0  0  0  0
  -35.3520  158.9150  -11.1630 N   0  0  0  0  0  0  0  0  0  0  0  0
  -37.5830  159.8750  -11.6380 C   0  0  0  0  0  0  0  0  0  0  0  0
  -37.2520  161.3670  -11.5970 C   0  0  0  0  0  0  0  0  0  0  0  0
  -37.7960  163.7520   -8.7090 C   0  0  0  0  0  0  0  0  0  0  0  0
  -38.0620  162.9200   -7.6710 N   0  0  0  0  0  0  0  0  0  0  0  0
  -38.8680  158.9000    2.2050 C   0  0  0  0  0  0  0  0  0  0  0  0
  -38.0490  157.9840    1.4380 O   0  0  0  0  0  0  0  0  0  0  0  0
  -38.7580  158.3470    0.2230 C   0  0  0  0  0  0  0  0  0  0  0  0
  -41.3282  159.6834    1.8490 H   0  0  0  0  0  0  0  0  0  0  0  0
  -41.1878  160.5747    0.2958 H   0  0  0  0  0  0  0  0  0  0  0  0
  -41.2953  158.7817    0.2958 H   0  0  0  0  0  0  0  0  0  0  0  0
  -38.3370  161.3538    1.5430 H   0  0  0  0  0  0  0  0  0  0  0  0
  -37.8056  160.7041   -0.0355 H   0  0  0  0  0  0  0  0  0  0  0  0
  -38.9013  164.1990   -1.0531 H   0  0  0  0  0  0  0  0  0  0  0  0
  -38.4079  164.6466   -3.4699 H   0  0  0  0  0  0  0  0  0  0  0  0
  -39.6550  160.0399   -1.9198 H   0  0  0  0  0  0  0  0  0  0  0  0
  -38.6034  160.6587   -6.6961 H   0  0  0  0  0  0  0  0  0  0  0  0
  -38.7827  165.1487   -5.2219 H   0  0  0  0  0  0  0  0  0  0  0  0
  -38.3046  166.7267   -7.1038 H   0  0  0  0  0  0  0  0  0  0  0  0
  -37.6866  167.1169   -9.4218 H   0  0  0  0  0  0  0  0  0  0  0  0
  -37.0902  166.2311  -11.6707 H   0  0  0  0  0  0  0  0  0  0  0  0
  -36.9493  163.7816  -12.0404 H   0  0  0  0  0  0  0  0  0  0  0  0
  -35.4257  161.3355   -9.5534 H   0  0  0  0  0  0  0  0  0  0  0  0
  -36.6398  161.5773   -8.2515 H   0  0  0  0  0  0  0  0  0  0  0  0
  -36.0276  159.1631   -8.6314 H   0  0  0  0  0  0  0  0  0  0  0  0
  -37.7937  159.5370   -8.8734 H   0  0  0  0  0  0  0  0  0  0  0  0
  -37.1496  158.0433  -10.5971 H   0  0  0  0  0  0  0  0  0  0  0  0
  -35.0470  157.9500  -11.0340 H   0  0  0  0  0  0  0  0  0  0  0  0
  -34.7120  159.4870  -10.6160 H   0  0  0  0  0  0  0  0  0  0  0  0
  -37.4098  159.5033  -12.6587 H   0  0  0  0  0  0  0  0  0  0  0  0
  -38.6347  159.7579  -11.3376 H   0  0  0  0  0  0  0  0  0  0  0  0
  -36.2261  161.5258  -11.9606 H   0  0  0  0  0  0  0  0  0  0  0  0
  -37.9557  161.9182  -12.2382 H   0  0  0  0  0  0  0  0  0  0  0  0
  -38.2906  159.5755    2.8533 H   0  0  0  0  0  0  0  0  0  0  0  0
  -39.5830  158.5056    2.9420 H   0  0  0  0  0  0  0  0  0  0  0  0
  -38.0968  158.6065   -0.6169 H   0  0  0  0  0  0  0  0  0  0  0  0
  -39.4031  157.6082   -0.2750 H   0  0  0  0  0  0  0  0  0  0  0  0
  1  2  1  0
  2  3  1  0
  3  4  1  0
  4  5  1  0
  5  6  2  0
  6  7  1  0
  7  8  2  0
  8  9  1  0
  9 10  2  0
  9 11  1  0
 11 12  2  0
 12 13  1  0
 13 14  1  0
 14 15  1  0
 15 16  2  0
 16 17  1  0
 17 18  2  0
 18 19  1  0
 19 20  2  0
 20 21  1  0
 21 22  1  0
 22 23  1  0
 23 24  1  0
 24 25  1  0
 25 26  1  0
 25 27  1  0
 27 28  1  0
 21 29  2  0
 29 30  1  0
  2 31  1  0
 31 32  1  0
 32 33  1  0
 33  2  1  0
 10  5  1  0
 30 14  2  0
 13  8  1  0
 29 17  1  0
 28 22  1  0
  1 34  1  0
  1 35  1  0
  1 36  1  0
  3 37  1  0
  3 38  1  0
  6 39  1  0
  7 40  1  0
 10 41  1  0
 12 42  1  0
 15 43  1  0
 16 44  1  0
 18 45  1  0
 19 46  1  0
 20 47  1  0
 23 48  1  0
 23 49  1  0
 24 50  1  0
 24 51  1  0
 25 52  1  0
 26 53  1  0
 26 54  1  0
 27 55  1  0
 27 56  1  0
 28 57  1  0
 28 58  1  0
 31 59  1  0
 31 60  1  0
 33 61  1  0
 33 62  1  0
M  END
>  <meeko>  (2) 
{"is_sidechain": false}

>  <vina_affinity_kcal_mol>  (2) 
-9.856

>  <pose_rank>  (2) 
2

$$$$

     RDKit          3D

 62 67  0  0  0  0  0  0  0  0999 V2000
  -38.6240  158.3300    0.4310 C   0  0  0  0  0  0  0  0  0  0  0  0
  -38.9870  159.5710   -0.3710 C   0  0  0  0  0  0  0  0  0  0  0  0
  -38.2760  159.6550   -1.7230 C   0  0  0  0  0  0  0  0  0  0  0  0
  -39.2650  159.8200   -2.7410 O   0  0  0  0  0  0  0  0  0  0  0  0
  -39.0420  160.7840   -3.6860 C   0  0  0  0  0  0  0  0  0  0  0  0
  -38.9630  160.5790   -5.0610 C   0  0  0  0  0  0  0  0  0  0  0  0
  -38.7290  161.6420   -5.9500 C   0  0  0  0  0  0  0  0  0  0  0  0
  -38.5560  162.9300   -5.4160 C   0  0  0  0  0  0  0  0  0  0  0  0
  -38.6820  163.1550   -4.0410 C   0  0  0  0  0  0  0  0  0  0  0  0
  -38.9110  162.0780   -3.1720 C   0  0  0  0  0  0  0  0  0  0  0  0
  -38.5790  164.4820   -3.7340 N   0  0  0  0  0  0  0  0  0  0  0  0
  -38.3980  165.0780   -4.8890 C   0  0  0  0  0  0  0  0  0  0  0  0
  -38.3110  164.1950   -5.9470 N   0  0  0  0  0  0  0  0  0  0  0  0
  -38.0240  164.6160   -7.2780 C   0  0  0  0  0  0  0  0  0  0  0  0
  -38.0920  165.9430   -7.6570 C   0  0  0  0  0  0  0  0  0  0  0  0
  -37.8000  166.2670   -8.9800 C   0  0  0  0  0  0  0  0  0  0  0  0
  -37.4590  165.2660   -9.8980 C   0  0  0  0  0  0  0  0  0  0  0  0
  -37.1750  165.5940  -11.2300 C   0  0  0  0  0  0  0  0  0  0  0  0
  -36.8560  164.5970  -12.1430 C   0  0  0  0  0  0  0  0  0  0  0  0
  -36.8170  163.2700  -11.7270 C   0  0  0  0  0  0  0  0  0  0  0  0
  -37.0890  162.9080  -10.3930 C   0  0  0  0  0  0  0  0  0  0  0  0
  -37.0440  161.5490   -9.9820 N   0  0  0  0  0  0  0  0  0  0  0  0
  -36.1870  161.3300   -8.8050 C   0  0  0  0  0  0  0  0  0  0  0  0
  -36.5350  159.9860   -8.1640 C   0  0  0  0  0  0  0  0  0  0  0  0
  -36.4940  158.8220   -9.1630 C   0  0  0  0  0  0  0  0  0  0  0  0
  -35.1180  158.4450   -9.5160 N   0  0  0  0  0  0  0  0  0  0  0  0
  -37.3120  159.1580  -10.4140 C   0  0  0  0  0  0  0  0  0  0  0  0
  -36.9330  160.5120  -11.0150 C   0  0  0  0  0  0  0  0  0  0  0  0
  -37.4200  163.9270   -9.4550 C   0  0  0  0  0  0  0  0  0  0  0  0
  -37.7140  163.6350   -8.1640 N   0  0  0  0  0  0  0  0  0  0  0  0
  -40.5000  159.8340   -0.4760 C   0  0  0  0  0  0  0  0  0  0  0  0
  -40.3290  161.1970   -0.0150 O   0  0  0  0  0  0  0  0  0  0  0  0
  -38.9750  160.8950    0.4160 C   0  0  0  0  0  0  0  0  0  0  0  0
  -38.6900  158.5556    1.5056 H   0  0  0  0  0  0  0  0  0  0  0  0
  -39.3218  157.5165    0.1836 H   0  0  0  0  0  0  0  0  0  0  0  0
  -37.5978  158.0208    0.1836 H   0  0  0  0  0  0  0  0  0  0  0  0
  -37.5891  160.5141   -1.7292 H   0  0  0  0  0  0  0  0  0  0  0  0
  -37.6959  158.7380   -1.9035 H   0  0  0  0  0  0  0  0  0  0  0  0
  -39.0866  159.5616   -5.4606 H   0  0  0  0  0  0  0  0  0  0  0  0
  -38.6825  161.4701   -7.0355 H   0  0  0  0  0  0  0  0  0  0  0  0
  -38.9874  162.2509   -2.0884 H   0  0  0  0  0  0  0  0  0  0  0  0
  -38.3232  166.1696   -5.0027 H   0  0  0  0  0  0  0  0  0  0  0  0
  -38.3695  166.7232   -6.9329 H   0  0  0  0  0  0  0  0  0  0  0  0
  -37.8376  167.3169   -9.3060 H   0  0  0  0  0  0  0  0  0  0  0  0
  -37.2047  166.6448  -11.5540 H   0  0  0  0  0  0  0  0  0  0  0  0
  -36.6354  164.8553  -13.1893 H   0  0  0  0  0  0  0  0  0  0  0  0
  -36.5680  162.4853  -12.4566 H   0  0  0  0  0  0  0  0  0  0  0  0
  -35.1317  161.3259   -9.1155 H   0  0  0  0  0  0  0  0  0  0  0  0
  -36.3517  162.1374   -8.0763 H   0  0  0  0  0  0  0  0  0  0  0  0
  -35.8136  159.7835   -7.3587 H   0  0  0  0  0  0  0  0  0  0  0  0
  -37.5639  160.0581   -7.7817 H   0  0  0  0  0  0  0  0  0  0  0  0
  -36.9485  157.9489   -8.6720 H   0  0  0  0  0  0  0  0  0  0  0  0
  -34.7610  157.7900   -8.8210 H   0  0  0  0  0  0  0  0  0  0  0  0
  -34.5040  159.2560   -9.4790 H   0  0  0  0  0  0  0  0  0  0  0  0
  -37.1397  158.3764  -11.1686 H   0  0  0  0  0  0  0  0  0  0  0  0
  -38.3702  159.2080  -10.1180 H   0  0  0  0  0  0  0  0  0  0  0  0
  -35.8984  160.4725  -11.3865 H   0  0  0  0  0  0  0  0  0  0  0  0
  -37.6107  160.7480  -11.8486 H   0  0  0  0  0  0  0  0  0  0  0  0
  -40.8937  159.7580   -1.5003 H   0  0  0  0  0  0  0  0  0  0  0  0
  -41.2061  159.1681    0.0417 H   0  0  0  0  0  0  0  0  0  0  0  0
  -38.2242  161.6163    0.0612 H   0  0  0  0  0  0  0  0  0  0  0  0
  -38.7308  160.8911    1.4886 H   0  0  0  0  0  0  0  0  0  0  0  0
  1  2  1  0
  2  3  1  0
  3  4  1  0
  4  5  1  0
  5  6  2  0
  6  7  1  0
  7  8  2  0
  8  9  1  0
  9 10  2  0
  9 11  1  0
 11 12  2  0
 12 13  1  0
 13 14  1  0
 14 15  1  0
 15 16  2  0
 16 17  1  0
 17 18  2  0
 18 19  1  0
 19 20  2  0
 20 21  1  0
 21 22  1  0
 22 23  1  0
 23 24  1  0
 24 25  1  0
 25 26  1  0
 25 27  1  0
 27 28  1  0
 21 29  2  0
 29 30  1  0
  2 31  1  0
 31 32  1  0
 32 33  1  0
 33  2  1  0
 10  5  1  0
 30 14  2  0
 13  8  1  0
 29 17  1  0
 28 22  1  0
  1 34  1  0
  1 35  1  0
  1 36  1  0
  3 37  1  0
  3 38  1  0
  6 39  1  0
  7 40  1  0
 10 41  1  0
 12 42  1  0
 15 43  1  0
 16 44  1  0
 18 45  1  0
 19 46  1  0
 20 47  1  0
 23 48  1  0
 23 49  1  0
 24 50  1  0
 24 51  1  0
 25 52  1  0
 26 53  1  0
 26 54  1  0
 27 55  1  0
 27 56  1  0
 28 57  1  0
 28 58  1  0
 31 59  1  0
 31 60  1  0
 33 61  1  0
 33 62  1  0
M  END
>  <meeko>  (3) 
{"is_sidechain": false}

>  <vina_affinity_kcal_mol>  (3) 
-9.317

>  <pose_rank>  (3) 
3

$$$$

     RDKit          3D

 62 67  0  0  0  0  0  0  0  0999 V2000
  -35.6980  157.4890    6.7630 C   0  0  0  0  0  0  0  0  0  0  0  0
  -34.5990  156.5800    6.2310 C   0  0  0  0  0  0  0  0  0  0  0  0
  -34.2900  155.3950    7.1470 C   0  0  0  0  0  0  0  0  0  0  0  0
  -35.5280  154.8480    7.6060 O   0  0  0  0  0  0  0  0  0  0  0  0
  -36.0210  153.7600    6.9400 C   0  0  0  0  0  0  0  0  0  0  0  0
  -37.2490  153.6900    6.2840 C   0  0  0  0  0  0  0  0  0  0  0  0
  -37.6630  152.5200    5.6260 C   0  0  0  0  0  0  0  0  0  0  0  0
  -36.8140  151.4010    5.6590 C   0  0  0  0  0  0  0  0  0  0  0  0
  -35.5600  151.4760    6.2730 C   0  0  0  0  0  0  0  0  0  0  0  0
  -35.1670  152.6530    6.9280 C   0  0  0  0  0  0  0  0  0  0  0  0
  -34.8470  150.3210    6.1120 N   0  0  0  0  0  0  0  0  0  0  0  0
  -35.6330  149.5400    5.4090 C   0  0  0  0  0  0  0  0  0  0  0  0
  -36.8670  150.1050    5.1500 N   0  0  0  0  0  0  0  0  0  0  0  0
  -37.9100  149.3990    4.4830 C   0  0  0  0  0  0  0  0  0  0  0  0
  -39.1920  149.3270    4.9960 C   0  0  0  0  0  0  0  0  0  0  0  0
  -40.1490  148.6120    4.2810 C   0  0  0  0  0  0  0  0  0  0  0  0
  -39.8110  147.9750    3.0800 C   0  0  0  0  0  0  0  0  0  0  0  0
  -40.7740  147.2480    2.3690 C   0  0  0  0  0  0  0  0  0  0  0  0
  -40.4310  146.6010    1.1890 C   0  0  0  0  0  0  0  0  0  0  0  0
  -39.1250  146.6800    0.7150 C   0  0  0  0  0  0  0  0  0  0  0  0
  -38.1350  147.4100    1.4030 C   0  0  0  0  0  0  0  0  0  0  0  0
  -36.8060  147.4830    0.9070 N   0  0  0  0  0  0  0  0  0  0  0  0
  -36.5690  148.6660    0.0620 C   0  0  0  0  0  0  0  0  0  0  0  0
  -35.0650  148.9170   -0.0530 C   0  0  0  0  0  0  0  0  0  0  0  0
  -34.2900  147.6800   -0.5210 C   0  0  0  0  0  0  0  0  0  0  0  0
  -34.4870  147.4140   -1.9530 N   0  0  0  0  0  0  0  0  0  0  0  0
  -34.6650  146.4590    0.3230 C   0  0  0  0  0  0  0  0  0  0  0  0
  -36.1760  146.2520    0.4150 C   0  0  0  0  0  0  0  0  0  0  0  0
  -38.4820  148.0710    2.6150 C   0  0  0  0  0  0  0  0  0  0  0  0
  -37.5660  148.7690    3.3310 N   0  0  0  0  0  0  0  0  0  0  0  0
  -34.7810  156.1650    4.7600 C   0  0  0  0  0  0  0  0  0  0  0  0
  -33.4350  156.5940    4.4380 O   0  0  0  0  0  0  0  0  0  0  0  0
  -33.3420  157.2980    5.7050 C   0  0  0  0  0  0  0  0  0  0  0  0
  -35.6834  157.4769    7.8628 H   0  0  0  0  0  0  0  0  0  0  0  0
  -35.5299  158.5156    6.4053 H   0  0  0  0  0  0  0  0  0  0  0  0
  -36.6748  157.1314    6.4053 H   0  0  0  0  0  0  0  0  0  0  0  0
  -33.7294  154.6302    6.5895 H   0  0  0  0  0  0  0  0  0  0  0  0
  -33.6814  155.7252    8.0017 H   0  0  0  0  0  0  0  0  0  0  0  0
  -37.9084  154.5704    6.2816 H   0  0  0  0  0  0  0  0  0  0  0  0
  -38.6274  152.4809    5.0983 H   0  0  0  0  0  0  0  0  0  0  0  0
  -34.1899  152.7046    7.4306 H   0  0  0  0  0  0  0  0  0  0  0  0
  -35.3396  148.5384    5.0616 H   0  0  0  0  0  0  0  0  0  0  0  0
  -39.4490  149.8217    5.9443 H   0  0  0  0  0  0  0  0  0  0  0  0
  -41.1788  148.5467    4.6622 H   0  0  0  0  0  0  0  0  0  0  0  0
  -41.8055  147.1893    2.7465 H   0  0  0  0  0  0  0  0  0  0  0  0
  -41.1877  146.0291    0.6319 H   0  0  0  0  0  0  0  0  0  0  0  0
  -38.8593  146.1609   -0.2177 H   0  0  0  0  0  0  0  0  0  0  0  0
  -36.9893  148.4915   -0.9395 H   0  0  0  0  0  0  0  0  0  0  0  0
  -37.0536  149.5434    0.5151 H   0  0  0  0  0  0  0  0  0  0  0  0
  -34.8986  149.7299   -0.7752 H   0  0  0  0  0  0  0  0  0  0  0  0
  -34.6956  149.1794    0.9493 H   0  0  0  0  0  0  0  0  0  0  0  0
  -33.2192  147.8877   -0.3785 H   0  0  0  0  0  0  0  0  0  0  0  0
  -34.2460  146.4430   -2.1500 H   0  0  0  0  0  0  0  0  0  0  0  0
  -33.8530  147.9790   -2.5140 H   0  0  0  0  0  0  0  0  0  0  0  0
  -34.2135  145.5645   -0.1309 H   0  0  0  0  0  0  0  0  0  0  0  0
  -34.2887  146.6295    1.3425 H   0  0  0  0  0  0  0  0  0  0  0  0
  -36.5746  146.0080   -0.5808 H   0  0  0  0  0  0  0  0  0  0  0  0
  -36.3928  145.4253    1.1075 H   0  0  0  0  0  0  0  0  0  0  0  0
  -34.9487  155.0868    4.6204 H   0  0  0  0  0  0  0  0  0  0  0  0
  -35.6312  156.5588    4.1837 H   0  0  0  0  0  0  0  0  0  0  0  0
  -32.4288  157.0701    6.2743 H   0  0  0  0  0  0  0  0  0  0  0  0
  -33.2946  158.3969    5.7176 H   0  0  0  0  0  0  0  0  0  0  0  0
  1  2  1  0
  2  3  1  0
  3  4  1  0
  4  5  1  0
  5  6  2  0
  6  7  1  0
  7  8  2  0
  8  9  1  0
  9 10  2  0
  9 11  1  0
 11 12  2  0
 12 13  1  0
 13 14  1  0
 14 15  1  0
 15 16  2  0
 16 17  1  0
 17 18  2  0
 18 19  1  0
 19 20  2  0
 20 21  1  0
 21 22  1  0
 22 23  1  0
 23 24  1  0
 24 25  1  0
 25 26  1  0
 25 27  1  0
 27 28  1  0
 21 29  2  0
 29 30  1  0
  2 31  1  0
 31 32  1  0
 32 33  1  0
 33  2  1  0
 10  5  1  0
 30 14  2  0
 13  8  1  0
 29 17  1  0
 28 22  1  0
  1 34  1  0
  1 35  1  0
  1 36  1  0
  3 37  1  0
  3 38  1  0
  6 39  1  0
  7 40  1  0
 10 41  1  0
 12 42  1  0
 15 43  1  0
 16 44  1  0
 18 45  1  0
 19 46  1  0
 20 47  1  0
 23 48  1  0
 23 49  1  0
 24 50  1  0
 24 51  1  0
 25 52  1  0
 26 53  1  0
 26 54  1  0
 27 55  1  0
 27 56  1  0
 28 57  1  0
 28 58  1  0
 31 59  1  0
 31 60  1  0
 33 61  1  0
 33 62  1  0
M  END
>  <meeko>  (4) 
{"is_sidechain": false}

>  <vina_affinity_kcal_mol>  (4) 
-8.909

>  <pose_rank>  (4) 
4

$$$$

     RDKit          3D

 62 67  0  0  0  0  0  0  0  0999 V2000
  -34.2540  156.9780    6.7450 C   0  0  0  0  0  0  0  0  0  0  0  0
  -35.7580  156.9770    6.5100 C   0  0  0  0  0  0  0  0  0  0  0  0
  -36.5110  155.9740    7.3840 C   0  0  0  0  0  0  0  0  0  0  0  0
  -35.7370  154.7750    7.4620 O   0  0  0  0  0  0  0  0  0  0  0  0
  -36.2120  153.6740    6.8040 C   0  0  0  0  0  0  0  0  0  0  0  0
  -37.4180  153.5910    6.1110 C   0  0  0  0  0  0  0  0  0  0  0  0
  -37.8150  152.4080    5.4660 C   0  0  0  0  0  0  0  0  0  0  0  0
  -36.9690  151.2890    5.5490 C   0  0  0  0  0  0  0  0  0  0  0  0
  -35.7340  151.3750    6.2010 C   0  0  0  0  0  0  0  0  0  0  0  0
  -35.3600  152.5660    6.8420 C   0  0  0  0  0  0  0  0  0  0  0  0
  -35.0190  150.2160    6.0860 N   0  0  0  0  0  0  0  0  0  0  0  0
  -35.7850  149.4220    5.3760 C   0  0  0  0  0  0  0  0  0  0  0  0
  -37.0090  149.9830    5.0670 N   0  0  0  0  0  0  0  0  0  0  0  0
  -38.0320  149.2640    4.3820 C   0  0  0  0  0  0  0  0  0  0  0  0
  -39.3200  149.1720    4.8770 C   0  0  0  0  0  0  0  0  0  0  0  0
  -40.2560  148.4450    4.1460 C   0  0  0  0  0  0  0  0  0  0  0  0
  -39.8920  147.8180    2.9480 C   0  0  0  0  0  0  0  0  0  0  0  0
  -40.8350  147.0790    2.2200 C   0  0  0  0  0  0  0  0  0  0  0  0
  -40.4650  146.4420    1.0440 C   0  0  0  0  0  0  0  0  0  0  0  0
  -39.1540  146.5410    0.5880 C   0  0  0  0  0  0  0  0  0  0  0  0
  -38.1850  147.2830    1.2930 C   0  0  0  0  0  0  0  0  0  0  0  0
  -36.8500  147.3770    0.8150 N   0  0  0  0  0  0  0  0  0  0  0  0
  -36.6370  148.5260   -0.0800 C   0  0  0  0  0  0  0  0  0  0  0  0
  -35.1400  148.8220   -0.1830 C   0  0  0  0  0  0  0  0  0  0  0  0
  -34.3160  147.5910   -0.5780 C   0  0  0  0  0  0  0  0  0  0  0  0
  -34.4790  147.2510   -1.9990 N   0  0  0  0  0  0  0  0  0  0  0  0
  -34.6670  146.3990    0.3170 C   0  0  0  0  0  0  0  0  0  0  0  0
  -36.1720  146.1460    0.3930 C   0  0  0  0  0  0  0  0  0  0  0  0
  -38.5590  147.9350    2.5020 C   0  0  0  0  0  0  0  0  0  0  0  0
  -37.6630  148.6430    3.2330 N   0  0  0  0  0  0  0  0  0  0  0  0
  -36.3990  158.3770    6.5220 C   0  0  0  0  0  0  0  0  0  0  0  0
  -37.0370  158.1320    5.2460 O   0  0  0  0  0  0  0  0  0  0  0  0
  -36.1980  156.9650    5.0350 C   0  0  0  0  0  0  0  0  0  0  0  0
  -34.0518  156.9781    7.8263 H   0  0  0  0  0  0  0  0  0  0  0  0
  -33.8111  156.0801    6.2893 H   0  0  0  0  0  0  0  0  0  0  0  0
  -33.8123  157.8764    6.2893 H   0  0  0  0  0  0  0  0  0  0  0  0
  -36.6521  156.3916    8.3918 H   0  0  0  0  0  0  0  0  0  0  0  0
  -37.4983  155.7595    6.9491 H   0  0  0  0  0  0  0  0  0  0  0  0
  -38.0745  154.4725    6.0680 H   0  0  0  0  0  0  0  0  0  0  0  0
  -38.7632  152.3588    4.9105 H   0  0  0  0  0  0  0  0  0  0  0  0
  -34.3987  152.6278    7.3732 H   0  0  0  0  0  0  0  0  0  0  0  0
  -35.4834  148.4127    5.0591 H   0  0  0  0  0  0  0  0  0  0  0  0
  -39.5977  149.6600    5.8229 H   0  0  0  0  0  0  0  0  0  0  0  0
  -41.2898  148.3626    4.5126 H   0  0  0  0  0  0  0  0  0  0  0  0
  -41.8710  147.0039    2.5820 H   0  0  0  0  0  0  0  0  0  0  0  0
  -41.2052  145.8610    0.4744 H   0  0  0  0  0  0  0  0  0  0  0  0
  -38.8678  146.0292   -0.3427 H   0  0  0  0  0  0  0  0  0  0  0  0
  -37.0338  148.2912   -1.0787 H   0  0  0  0  0  0  0  0  0  0  0  0
  -37.1577  149.4067    0.3240 H   0  0  0  0  0  0  0  0  0  0  0  0
  -34.9880  149.6045   -0.9410 H   0  0  0  0  0  0  0  0  0  0  0  0
  -34.7973  149.1444    0.8113 H   0  0  0  0  0  0  0  0  0  0  0  0
  -33.2554  147.8408   -0.4276 H   0  0  0  0  0  0  0  0  0  0  0  0
  -35.4550  147.3780   -2.2650 H   0  0  0  0  0  0  0  0  0  0  0  0
  -34.2700  146.2680   -2.1580 H   0  0  0  0  0  0  0  0  0  0  0  0
  -34.1782  145.4997   -0.0859 H   0  0  0  0  0  0  0  0  0  0  0  0
  -34.3157  146.6300    1.3335 H   0  0  0  0  0  0  0  0  0  0  0  0
  -36.5440  145.8424   -0.5967 H   0  0  0  0  0  0  0  0  0  0  0  0
  -36.3749  145.3458    1.1200 H   0  0  0  0  0  0  0  0  0  0  0  0
  -37.1067  158.5341    7.3493 H   0  0  0  0  0  0  0  0  0  0  0  0
  -35.7644  159.2660    6.6524 H   0  0  0  0  0  0  0  0  0  0  0  0
  -36.7562  156.0627    4.7448 H   0  0  0  0  0  0  0  0  0  0  0  0
  -35.4397  156.9737    4.2382 H   0  0  0  0  0  0  0  0  0  0  0  0
  1  2  1  0
  2  3  1  0
  3  4  1  0
  4  5  1  0
  5  6  2  0
  6  7  1  0
  7  8  2  0
  8  9  1  0
  9 10  2  0
  9 11  1  0
 11 12  2  0
 12 13  1  0
 13 14  1  0
 14 15  1  0
 15 16  2  0
 16 17  1  0
 17 18  2  0
 18 19  1  0
 19 20  2  0
 20 21  1  0
 21 22  1  0
 22 23  1  0
 23 24  1  0
 24 25  1  0
 25 26  1  0
 25 27  1  0
 27 28  1  0
 21 29  2  0
 29 30  1  0
  2 31  1  0
 31 32  1  0
 32 33  1  0
 33  2  1  0
 10  5  1  0
 30 14  2  0
 13  8  1  0
 29 17  1  0
 28 22  1  0
  1 34  1  0
  1 35  1  0
  1 36  1  0
  3 37  1  0
  3 38  1  0
  6 39  1  0
  7 40  1  0
 10 41  1  0
 12 42  1  0
 15 43  1  0
 16 44  1  0
 18 45  1  0
 19 46  1  0
 20 47  1  0
 23 48  1  0
 23 49  1  0
 24 50  1  0
 24 51  1  0
 25 52  1  0
 26 53  1  0
 26 54  1  0
 27 55  1  0
 27 56  1  0
 28 57  1  0
 28 58  1  0
 31 59  1  0
 31 60  1  0
 33 61  1  0
 33 62  1  0
M  END
>  <meeko>  (5) 
{"is_sidechain": false}

>  <vina_affinity_kcal_mol>  (5) 
-8.818

>  <pose_rank>  (5) 
5

$$$$

     RDKit          3D

 62 67  0  0  0  0  0  0  0  0999 V2000
  -34.6580  155.8070    7.3890 C   0  0  0  0  0  0  0  0  0  0  0  0
  -34.8890  155.6080    5.8980 C   0  0  0  0  0  0  0  0  0  0  0  0
  -36.2480  154.9910    5.5670 C   0  0  0  0  0  0  0  0  0  0  0  0
  -36.5080  153.9460    6.5070 O   0  0  0  0  0  0  0  0  0  0  0  0
  -36.4760  152.6590    6.0440 C   0  0  0  0  0  0  0  0  0  0  0  0
  -35.3620  151.8220    6.0310 C   0  0  0  0  0  0  0  0  0  0  0  0
  -35.4360  150.5100    5.5320 C   0  0  0  0  0  0  0  0  0  0  0  0
  -36.6650  150.0600    5.0220 C   0  0  0  0  0  0  0  0  0  0  0  0
  -37.8010  150.8760    5.0740 C   0  0  0  0  0  0  0  0  0  0  0  0
  -37.7030  152.1840    5.5740 C   0  0  0  0  0  0  0  0  0  0  0  0
  -38.9140  150.2240    4.6240 N   0  0  0  0  0  0  0  0  0  0  0  0
  -38.4890  149.0250    4.2990 C   0  0  0  0  0  0  0  0  0  0  0  0
  -37.1250  148.8730    4.4560 N   0  0  0  0  0  0  0  0  0  0  0  0
  -36.4360  147.6840    4.0760 C   0  0  0  0  0  0  0  0  0  0  0  0
  -35.9940  146.7640    5.0090 C   0  0  0  0  0  0  0  0  0  0  0  0
  -35.3250  145.6320    4.5510 C   0  0  0  0  0  0  0  0  0  0  0  0
  -35.1010  145.4440    3.1820 C   0  0  0  0  0  0  0  0  0  0  0  0
  -34.4180  144.3070    2.7260 C   0  0  0  0  0  0  0  0  0  0  0  0
  -34.1800  144.1330    1.3690 C   0  0  0  0  0  0  0  0  0  0  0  0
  -34.6240  145.0910    0.4630 C   0  0  0  0  0  0  0  0  0  0  0  0
  -35.3200  146.2400    0.8890 C   0  0  0  0  0  0  0  0  0  0  0  0
  -35.7680  147.2100   -0.0480 N   0  0  0  0  0  0  0  0  0  0  0  0
  -36.2340  146.6170   -1.3130 C   0  0  0  0  0  0  0  0  0  0  0  0
  -37.0960  147.6330   -2.0640 C   0  0  0  0  0  0  0  0  0  0  0  0
  -36.3940  148.9820   -2.2560 C   0  0  0  0  0  0  0  0  0  0  0  0
  -35.3440  148.9190   -3.2820 N   0  0  0  0  0  0  0  0  0  0  0  0
  -35.8330  149.4900   -0.9240 C   0  0  0  0  0  0  0  0  0  0  0  0
  -34.9840  148.4400   -0.2070 C   0  0  0  0  0  0  0  0  0  0  0  0
  -35.5620  146.4250    2.2790 C   0  0  0  0  0  0  0  0  0  0  0  0
  -36.2070  147.5220    2.7480 N   0  0  0  0  0  0  0  0  0  0  0  0
  -34.5730  156.8470    5.0400 C   0  0  0  0  0  0  0  0  0  0  0  0
  -33.7210  156.0670    4.1670 O   0  0  0  0  0  0  0  0  0  0  0  0
  -33.7180  154.9750    5.1250 C   0  0  0  0  0  0  0  0  0  0  0  0
  -35.3721  155.1918    7.9560 H   0  0  0  0  0  0  0  0  0  0  0  0
  -33.6312  155.5061    7.6443 H   0  0  0  0  0  0  0  0  0  0  0  0
  -34.8037  156.8670    7.6443 H   0  0  0  0  0  0  0  0  0  0  0  0
  -37.0323  155.7589    5.6383 H   0  0  0  0  0  0  0  0  0  0  0  0
  -36.2415  154.5871    4.5439 H   0  0  0  0  0  0  0  0  0  0  0  0
  -34.4035  152.1963    6.4198 H   0  0  0  0  0  0  0  0  0  0  0  0
  -34.5541  149.8526    5.5407 H   0  0  0  0  0  0  0  0  0  0  0  0
  -38.5904  152.8337    5.5957 H   0  0  0  0  0  0  0  0  0  0  0  0
  -39.1511  148.2238    3.9387 H   0  0  0  0  0  0  0  0  0  0  0  0
  -36.1662  146.9222    6.0839 H   0  0  0  0  0  0  0  0  0  0  0  0
  -34.9697  144.8796    5.2705 H   0  0  0  0  0  0  0  0  0  0  0  0
  -34.0699  143.5510    3.4453 H   0  0  0  0  0  0  0  0  0  0  0  0
  -33.6429  143.2419    1.0120 H   0  0  0  0  0  0  0  0  0  0  0  0
  -34.4274  144.9484   -0.6098 H   0  0  0  0  0  0  0  0  0  0  0  0
  -35.3664  146.3436   -1.9315 H   0  0  0  0  0  0  0  0  0  0  0  0
  -36.8294  145.7171   -1.0992 H   0  0  0  0  0  0  0  0  0  0  0  0
  -37.3424  147.2212   -3.0538 H   0  0  0  0  0  0  0  0  0  0  0  0
  -37.9978  147.8123   -1.4602 H   0  0  0  0  0  0  0  0  0  0  0  0
  -37.1480  149.6980   -2.6149 H   0  0  0  0  0  0  0  0  0  0  0  0
  -34.4960  149.3560   -2.9220 H   0  0  0  0  0  0  0  0  0  0  0  0
  -35.6110  149.4580   -4.1030 H   0  0  0  0  0  0  0  0  0  0  0  0
  -35.2093  150.3749   -1.1186 H   0  0  0  0  0  0  0  0  0  0  0  0
  -36.6860  149.7313   -0.2727 H   0  0  0  0  0  0  0  0  0  0  0  0
  -34.0830  148.2275   -0.8012 H   0  0  0  0  0  0  0  0  0  0  0  0
  -34.6869  148.8185    0.7822 H   0  0  0  0  0  0  0  0  0  0  0  0
  -35.4526  157.2740    4.5361 H   0  0  0  0  0  0  0  0  0  0  0  0
  -34.1772  157.7548    5.5188 H   0  0  0  0  0  0  0  0  0  0  0  0
  -33.9546  153.9957    4.6834 H   0  0  0  0  0  0  0  0  0  0  0  0
  -32.7897  154.7162    5.6554 H   0  0  0  0  0  0  0  0  0  0  0  0
  1  2  1  0
  2  3  1  0
  3  4  1  0
  4  5  1  0
  5  6  2  0
  6  7  1  0
  7  8  2  0
  8  9  1  0
  9 10  2  0
  9 11  1  0
 11 12  2  0
 12 13  1  0
 13 14  1  0
 14 15  1  0
 15 16  2  0
 16 17  1  0
 17 18  2  0
 18 19  1  0
 19 20  2  0
 20 21  1  0
 21 22  1  0
 22 23  1  0
 23 24  1  0
 24 25  1  0
 25 26  1  0
 25 27  1  0
 27 28  1  0
 21 29  2  0
 29 30  1  0
  2 31  1  0
 31 32  1  0
 32 33  1  0
 33  2  1  0
 10  5  1  0
 30 14  2  0
 13  8  1  0
 29 17  1  0
 28 22  1  0
  1 34  1  0
  1 35  1  0
  1 36  1  0
  3 37  1  0
  3 38  1  0
  6 39  1  0
  7 40  1  0
 10 41  1  0
 12 42  1  0
 15 43  1  0
 16 44  1  0
 18 45  1  0
 19 46  1  0
 20 47  1  0
 23 48  1  0
 23 49  1  0
 24 50  1  0
 24 51  1  0
 25 52  1  0
 26 53  1  0
 26 54  1  0
 27 55  1  0
 27 56  1  0
 28 57  1  0
 28 58  1  0
 31 59  1  0
 31 60  1  0
 33 61  1  0
 33 62  1  0
M  END
>  <meeko>  (6) 
{"is_sidechain": false}

>  <vina_affinity_kcal_mol>  (6) 
-8.485

>  <pose_rank>  (6) 
6

$$$$

     RDKit          3D

 62 67  0  0  0  0  0  0  0  0999 V2000
  -34.0740  153.7280    5.1670 C   0  0  0  0  0  0  0  0  0  0  0  0
  -34.9260  154.2180    6.3280 C   0  0  0  0  0  0  0  0  0  0  0  0
  -35.4860  153.0890    7.1950 C   0  0  0  0  0  0  0  0  0  0  0  0
  -36.8720  152.9290    6.8850 O   0  0  0  0  0  0  0  0  0  0  0  0
  -37.2130  151.9270    6.0190 C   0  0  0  0  0  0  0  0  0  0  0  0
  -38.3050  151.9280    5.1540 C   0  0  0  0  0  0  0  0  0  0  0  0
  -38.5670  150.8440    4.3010 C   0  0  0  0  0  0  0  0  0  0  0  0
  -37.7070  149.7340    4.3500 C   0  0  0  0  0  0  0  0  0  0  0  0
  -36.5800  149.7420    5.1790 C   0  0  0  0  0  0  0  0  0  0  0  0
  -36.3390  150.8350    6.0270 C   0  0  0  0  0  0  0  0  0  0  0  0
  -35.8190  148.6200    5.0100 N   0  0  0  0  0  0  0  0  0  0  0  0
  -36.4500  147.9250    4.0940 C   0  0  0  0  0  0  0  0  0  0  0  0
  -37.6350  148.5090    3.6910 N   0  0  0  0  0  0  0  0  0  0  0  0
  -38.5270  147.8820    2.7720 C   0  0  0  0  0  0  0  0  0  0  0  0
  -39.8770  147.7450    3.0390 C   0  0  0  0  0  0  0  0  0  0  0  0
  -40.6750  147.1150    2.0880 C   0  0  0  0  0  0  0  0  0  0  0  0
  -40.1160  146.6260    0.9010 C   0  0  0  0  0  0  0  0  0  0  0  0
  -40.9220  145.9840   -0.0490 C   0  0  0  0  0  0  0  0  0  0  0  0
  -40.3610  145.4830   -1.2160 C   0  0  0  0  0  0  0  0  0  0  0  0
  -38.9950  145.6230   -1.4400 C   0  0  0  0  0  0  0  0  0  0  0  0
  -38.1590  146.2710   -0.5080 C   0  0  0  0  0  0  0  0  0  0  0  0
  -36.7660  146.4070   -0.7490 N   0  0  0  0  0  0  0  0  0  0  0  0
  -36.4630  146.9410   -2.0880 C   0  0  0  0  0  0  0  0  0  0  0  0
  -35.0300  147.4750   -2.1110 C   0  0  0  0  0  0  0  0  0  0  0  0
  -34.0030  146.4440   -1.6280 C   0  0  0  0  0  0  0  0  0  0  0  0
  -33.7650  145.3920   -2.6260 N   0  0  0  0  0  0  0  0  0  0  0  0
  -34.4340  145.8440   -0.2860 C   0  0  0  0  0  0  0  0  0  0  0  0
  -35.8730  145.3290   -0.3100 C   0  0  0  0  0  0  0  0  0  0  0  0
  -38.7300  146.7820    0.6920 C   0  0  0  0  0  0  0  0  0  0  0  0
  -37.9710  147.3940    1.6350 N   0  0  0  0  0  0  0  0  0  0  0  0
  -34.2760  155.3390    7.1590 C   0  0  0  0  0  0  0  0  0  0  0  0
  -35.4570  156.1670    7.0270 O   0  0  0  0  0  0  0  0  0  0  0  0
  -35.9640  155.3000    5.9780 C   0  0  0  0  0  0  0  0  0  0  0  0
  -33.1825  153.2153    5.5572 H   0  0  0  0  0  0  0  0  0  0  0  0
  -34.6595  153.0286    4.5521 H   0  0  0  0  0  0  0  0  0  0  0  0
  -33.7639  154.5858    4.5521 H   0  0  0  0  0  0  0  0  0  0  0  0
  -34.9470  152.1541    6.9817 H   0  0  0  0  0  0  0  0  0  0  0  0
  -35.3621  153.3329    8.2604 H   0  0  0  0  0  0  0  0  0  0  0  0
  -38.9776  152.7983    5.1389 H   0  0  0  0  0  0  0  0  0  0  0  0
  -39.4240  150.8633    3.6117 H   0  0  0  0  0  0  0  0  0  0  0  0
  -35.4655  150.8324    6.6956 H   0  0  0  0  0  0  0  0  0  0  0  0
  -36.0739  146.9743    3.6882 H   0  0  0  0  0  0  0  0  0  0  0  0
  -40.3085  148.1235    3.9773 H   0  0  0  0  0  0  0  0  0  0  0  0
  -41.7537  147.0004    2.2706 H   0  0  0  0  0  0  0  0  0  0  0  0
  -42.0019  145.8768    0.1305 H   0  0  0  0  0  0  0  0  0  0  0  0
  -40.9938  144.9775   -1.9603 H   0  0  0  0  0  0  0  0  0  0  0  0
  -38.5576  145.2191   -2.3649 H   0  0  0  0  0  0  0  0  0  0  0  0
  -36.5680  146.1401   -2.8347 H   0  0  0  0  0  0  0  0  0  0  0  0
  -37.1623  147.7565   -2.3247 H   0  0  0  0  0  0  0  0  0  0  0  0
  -34.7793  147.7640   -3.1423 H   0  0  0  0  0  0  0  0  0  0  0  0
  -34.9856  148.3330   -1.4241 H   0  0  0  0  0  0  0  0  0  0  0  0
  -33.0479  146.9706   -1.4850 H   0  0  0  0  0  0  0  0  0  0  0  0
  -34.6150  145.2460   -3.1700 H   0  0  0  0  0  0  0  0  0  0  0  0
  -33.5670  144.5030   -2.1700 H   0  0  0  0  0  0  0  0  0  0  0  0
  -33.7637  145.0065   -0.0425 H   0  0  0  0  0  0  0  0  0  0  0  0
  -34.3769  146.6409    0.4701 H   0  0  0  0  0  0  0  0  0  0  0  0
  -35.9486  144.4820   -1.0078 H   0  0  0  0  0  0  0  0  0  0  0  0
  -36.1629  144.9976    0.6981 H   0  0  0  0  0  0  0  0  0  0  0  0
  -34.0506  155.0492    8.1959 H   0  0  0  0  0  0  0  0  0  0  0  0
  -33.2947  155.7381    6.8628 H   0  0  0  0  0  0  0  0  0  0  0  0
  -37.0061  154.9818    6.1292 H   0  0  0  0  0  0  0  0  0  0  0  0
  -36.0361  155.6749    4.9464 H   0  0  0  0  0  0  0  0  0  0  0  0
  1  2  1  0
  2  3  1  0
  3  4  1  0
  4  5  1  0
  5  6  2  0
  6  7  1  0
  7  8  2  0
  8  9  1  0
  9 10  2  0
  9 11  1  0
 11 12  2  0
 12 13  1  0
 13 14  1  0
 14 15  1  0
 15 16  2  0
 16 17  1  0
 17 18  2  0
 18 19  1  0
 19 20  2  0
 20 21  1  0
 21 22  1  0
 22 23  1  0
 23 24  1  0
 24 25  1  0
 25 26  1  0
 25 27  1  0
 27 28  1  0
 21 29  2  0
 29 30  1  0
  2 31  1  0
 31 32  1  0
 32 33  1  0
 33  2  1  0
 10  5  1  0
 30 14  2  0
 13  8  1  0
 29 17  1  0
 28 22  1  0
  1 34  1  0
  1 35  1  0
  1 36  1  0
  3 37  1  0
  3 38  1  0
  6 39  1  0
  7 40  1  0
 10 41  1  0
 12 42  1  0
 15 43  1  0
 16 44  1  0
 18 45  1  0
 19 46  1  0
 20 47  1  0
 23 48  1  0
 23 49  1  0
 24 50  1  0
 24 51  1  0
 25 52  1  0
 26 53  1  0
 26 54  1  0
 27 55  1  0
 27 56  1  0
 28 57  1  0
 28 58  1  0
 31 59  1  0
 31 60  1  0
 33 61  1  0
 33 62  1  0
M  END
>  <meeko>  (7) 
{"is_sidechain": false}

>  <vina_affinity_kcal_mol>  (7) 
-8.336

>  <pose_rank>  (7) 
7

$$$$

     RDKit          3D

 62 67  0  0  0  0  0  0  0  0999 V2000
  -35.2370  147.1110   -2.3930 C   0  0  0  0  0  0  0  0  0  0  0  0
  -36.2240  148.2550   -2.2040 C   0  0  0  0  0  0  0  0  0  0  0  0
  -37.6390  147.7890   -1.8570 C   0  0  0  0  0  0  0  0  0  0  0  0
  -37.5440  146.7620   -0.8680 O   0  0  0  0  0  0  0  0  0  0  0  0
  -37.5080  147.1500    0.4430 C   0  0  0  0  0  0  0  0  0  0  0  0
  -36.5210  146.8170    1.3690 C   0  0  0  0  0  0  0  0  0  0  0  0
  -36.5780  147.2710    2.6970 C   0  0  0  0  0  0  0  0  0  0  0  0
  -37.6730  148.0610    3.0850 C   0  0  0  0  0  0  0  0  0  0  0  0
  -38.6440  148.4410    2.1520 C   0  0  0  0  0  0  0  0  0  0  0  0
  -38.5700  147.9730    0.8310 C   0  0  0  0  0  0  0  0  0  0  0  0
  -39.5680  149.2870    2.6980 N   0  0  0  0  0  0  0  0  0  0  0  0
  -39.1840  149.4390    3.9440 C   0  0  0  0  0  0  0  0  0  0  0  0
  -38.0780  148.6770    4.2670 N   0  0  0  0  0  0  0  0  0  0  0  0
  -37.5470  148.6160    5.5880 C   0  0  0  0  0  0  0  0  0  0  0  0
  -37.7800  147.5390    6.4240 C   0  0  0  0  0  0  0  0  0  0  0  0
  -37.2270  147.5640    7.7010 C   0  0  0  0  0  0  0  0  0  0  0  0
  -36.4650  148.6600    8.1250 C   0  0  0  0  0  0  0  0  0  0  0  0
  -35.9190  148.6860    9.4150 C   0  0  0  0  0  0  0  0  0  0  0  0
  -35.1800  149.7830    9.8390 C   0  0  0  0  0  0  0  0  0  0  0  0
  -34.9840  150.8560    8.9760 C   0  0  0  0  0  0  0  0  0  0  0  0
  -35.5130  150.8570    7.6700 C   0  0  0  0  0  0  0  0  0  0  0  0
  -35.3040  151.9600    6.7990 N   0  0  0  0  0  0  0  0  0  0  0  0
  -33.9400  152.0070    6.2460 C   0  0  0  0  0  0  0  0  0  0  0  0
  -33.9210  152.9110    5.0130 C   0  0  0  0  0  0  0  0  0  0  0  0
  -34.5070  154.3010    5.2850 C   0  0  0  0  0  0  0  0  0  0  0  0
  -33.5950  155.1410    6.0750 N   0  0  0  0  0  0  0  0  0  0  0  0
  -35.8760  154.1840    5.9640 C   0  0  0  0  0  0  0  0  0  0  0  0
  -35.8460  153.2680    7.1860 C   0  0  0  0  0  0  0  0  0  0  0  0
  -36.2740  149.7360    7.2330 C   0  0  0  0  0  0  0  0  0  0  0  0
  -36.8270  149.6930    5.9950 N   0  0  0  0  0  0  0  0  0  0  0  0
  -35.7220  149.3750   -1.2750 C   0  0  0  0  0  0  0  0  0  0  0  0
  -36.0230  150.3820   -2.2710 O   0  0  0  0  0  0  0  0  0  0  0  0
  -36.1820  149.3510   -3.2830 C   0  0  0  0  0  0  0  0  0  0  0  0
  -34.9152  146.7381   -1.4094 H   0  0  0  0  0  0  0  0  0  0  0  0
  -35.7214  146.2975   -2.9530 H   0  0  0  0  0  0  0  0  0  0  0  0
  -34.3613  147.4709   -2.9530 H   0  0  0  0  0  0  0  0  0  0  0  0
  -38.2220  148.6336   -1.4611 H   0  0  0  0  0  0  0  0  0  0  0  0
  -38.1419  147.4035   -2.7562 H   0  0  0  0  0  0  0  0  0  0  0  0
  -35.6785  146.1845    1.0527 H   0  0  0  0  0  0  0  0  0  0  0  0
  -35.7852  147.0144    3.4151 H   0  0  0  0  0  0  0  0  0  0  0  0
  -39.3454  148.2528    0.1026 H   0  0  0  0  0  0  0  0  0  0  0  0
  -39.6910  150.1049    4.6578 H   0  0  0  0  0  0  0  0  0  0  0  0
  -38.3866  146.6849    6.0883 H   0  0  0  0  0  0  0  0  0  0  0  0
  -37.3897  146.7162    8.3827 H   0  0  0  0  0  0  0  0  0  0  0  0
  -36.0760  147.8350   10.0941 H   0  0  0  0  0  0  0  0  0  0  0  0
  -34.7520  149.8031   10.8521 H   0  0  0  0  0  0  0  0  0  0  0  0
  -34.4027  151.7238    9.3209 H   0  0  0  0  0  0  0  0  0  0  0  0
  -33.2505  152.4065    7.0042 H   0  0  0  0  0  0  0  0  0  0  0  0
  -33.6243  150.9923    5.9617 H   0  0  0  0  0  0  0  0  0  0  0  0
  -32.8794  153.0281    4.6794 H   0  0  0  0  0  0  0  0  0  0  0  0
  -34.5454  152.4337    4.2434 H   0  0  0  0  0  0  0  0  0  0  0  0
  -34.6394  154.7993    4.3133 H   0  0  0  0  0  0  0  0  0  0  0  0
  -33.9150  156.1090    6.0400 H   0  0  0  0  0  0  0  0  0  0  0  0
  -32.6630  155.1380    5.6670 H   0  0  0  0  0  0  0  0  0  0  0  0
  -36.1989  155.1863    6.2822 H   0  0  0  0  0  0  0  0  0  0  0  0
  -36.5744  153.7467    5.2353 H   0  0  0  0  0  0  0  0  0  0  0  0
  -35.2090  153.7141    7.9640 H   0  0  0  0  0  0  0  0  0  0  0  0
  -36.8663  153.1427    7.5776 H   0  0  0  0  0  0  0  0  0  0  0  0
  -36.3061  149.4784   -0.3486 H   0  0  0  0  0  0  0  0  0  0  0  0
  -34.7099  149.3162   -0.8481 H   0  0  0  0  0  0  0  0  0  0  0  0
  -37.1117  149.4383   -3.8644 H   0  0  0  0  0  0  0  0  0  0  0  0
  -35.4578  149.2785   -4.1078 H   0  0  0  0  0  0  0  0  0  0  0  0
  1  2  1  0
  2  3  1  0
  3  4  1  0
  4  5  1  0
  5  6  2  0
  6  7  1  0
  7  8  2  0
  8  9  1  0
  9 10  2  0
  9 11  1  0
 11 12  2  0
 12 13  1  0
 13 14  1  0
 14 15  1  0
 15 16  2  0
 16 17  1  0
 17 18  2  0
 18 19  1  0
 19 20  2  0
 20 21  1  0
 21 22  1  0
 22 23  1  0
 23 24  1  0
 24 25  1  0
 25 26  1  0
 25 27  1  0
 27 28  1  0
 21 29  2  0
 29 30  1  0
  2 31  1  0
 31 32  1  0
 32 33  1  0
 33  2  1  0
 10  5  1  0
 30 14  2  0
 13  8  1  0
 29 17  1  0
 28 22  1  0
  1 34  1  0
  1 35  1  0
  1 36  1  0
  3 37  1  0
  3 38  1  0
  6 39  1  0
  7 40  1  0
 10 41  1  0
 12 42  1  0
 15 43  1  0
 16 44  1  0
 18 45  1  0
 19 46  1  0
 20 47  1  0
 23 48  1  0
 23 49  1  0
 24 50  1  0
 24 51  1  0
 25 52  1  0
 26 53  1  0
 26 54  1  0
 27 55  1  0
 27 56  1  0
 28 57  1  0
 28 58  1  0
 31 59  1  0
 31 60  1  0
 33 61  1  0
 33 62  1  0
M  END
>  <meeko>  (8) 
{"is_sidechain": false}

>  <vina_affinity_kcal_mol>  (8) 
-8.282

>  <pose_rank>  (8) 
8

$$$$

     RDKit          3D

 62 67  0  0  0  0  0  0  0  0999 V2000
  -40.3890  158.3220    2.5210 C   0  0  0  0  0  0  0  0  0  0  0  0
  -39.1910  158.7590    1.6900 C   0  0  0  0  0  0  0  0  0  0  0  0
  -37.8810  158.0890    2.1070 C   0  0  0  0  0  0  0  0  0  0  0  0
  -37.8450  158.0230    3.5340 O   0  0  0  0  0  0  0  0  0  0  0  0
  -37.3560  156.8770    4.1000 C   0  0  0  0  0  0  0  0  0  0  0  0
  -38.1110  155.7820    4.5130 C   0  0  0  0  0  0  0  0  0  0  0  0
  -37.5080  154.6480    5.0840 C   0  0  0  0  0  0  0  0  0  0  0  0
  -36.1130  154.6480    5.2510 C   0  0  0  0  0  0  0  0  0  0  0  0
  -35.3410  155.7220    4.7960 C   0  0  0  0  0  0  0  0  0  0  0  0
  -35.9640  156.8460    4.2310 C   0  0  0  0  0  0  0  0  0  0  0  0
  -34.0040  155.4890    4.9570 N   0  0  0  0  0  0  0  0  0  0  0  0
  -33.9380  154.2960    5.4980 C   0  0  0  0  0  0  0  0  0  0  0  0
  -35.1790  153.7500    5.7620 N   0  0  0  0  0  0  0  0  0  0  0  0
  -35.3430  152.5020    6.4310 C   0  0  0  0  0  0  0  0  0  0  0  0
  -34.6220  152.1780    7.5640 C   0  0  0  0  0  0  0  0  0  0  0  0
  -34.8410  150.9350    8.1520 C   0  0  0  0  0  0  0  0  0  0  0  0
  -35.7610  150.0380    7.5960 C   0  0  0  0  0  0  0  0  0  0  0  0
  -35.9720  148.7830    8.1840 C   0  0  0  0  0  0  0  0  0  0  0  0
  -36.8700  147.8880    7.6180 C   0  0  0  0  0  0  0  0  0  0  0  0
  -37.5630  148.2430    6.4650 C   0  0  0  0  0  0  0  0  0  0  0  0
  -37.3800  149.5000    5.8540 C   0  0  0  0  0  0  0  0  0  0  0  0
  -38.0950  149.8500    4.6770 N   0  0  0  0  0  0  0  0  0  0  0  0
  -38.7770  151.1500    4.7820 C   0  0  0  0  0  0  0  0  0  0  0  0
  -39.1270  151.6560    3.3820 C   0  0  0  0  0  0  0  0  0  0  0  0
  -39.9130  150.6300    2.5580 C   0  0  0  0  0  0  0  0  0  0  0  0
  -41.3080  150.5130    3.0050 N   0  0  0  0  0  0  0  0  0  0  0  0
  -39.2100  149.2690    2.5820 C   0  0  0  0  0  0  0  0  0  0  0  0
  -38.8760  148.8080    4.0000 C   0  0  0  0  0  0  0  0  0  0  0  0
  -36.4560  150.4190    6.4290 C   0  0  0  0  0  0  0  0  0  0  0  0
  -36.2230  151.6330    5.8710 N   0  0  0  0  0  0  0  0  0  0  0  0
  -39.4270  158.7090    0.1690 C   0  0  0  0  0  0  0  0  0  0  0  0
  -38.9770  160.0780    0.0220 O   0  0  0  0  0  0  0  0  0  0  0  0
  -39.0630  160.2750    1.4580 C   0  0  0  0  0  0  0  0  0  0  0  0
  -40.1457  158.4108    3.5901 H   0  0  0  0  0  0  0  0  0  0  0  0
  -41.2513  158.9635    2.2867 H   0  0  0  0  0  0  0  0  0  0  0  0
  -40.6358  157.2760    2.2867 H   0  0  0  0  0  0  0  0  0  0  0  0
  -37.8322  157.0738    1.6864 H   0  0  0  0  0  0  0  0  0  0  0  0
  -37.0236  158.6676    1.7327 H   0  0  0  0  0  0  0  0  0  0  0  0
  -39.2038  155.8051    4.3896 H   0  0  0  0  0  0  0  0  0  0  0  0
  -38.1129  153.7825    5.3923 H   0  0  0  0  0  0  0  0  0  0  0  0
  -35.3590  157.6999    3.8923 H   0  0  0  0  0  0  0  0  0  0  0  0
  -32.9907  153.7825    5.7190 H   0  0  0  0  0  0  0  0  0  0  0  0
  -33.8939  152.8836    7.9905 H   0  0  0  0  0  0  0  0  0  0  0  0
  -34.2870  150.6556    9.0603 H   0  0  0  0  0  0  0  0  0  0  0  0
  -35.4242  148.5064    9.0969 H   0  0  0  0  0  0  0  0  0  0  0  0
  -37.0328  146.9027    8.0791 H   0  0  0  0  0  0  0  0  0  0  0  0
  -38.2695  147.5267    6.0203 H   0  0  0  0  0  0  0  0  0  0  0  0
  -39.6987  151.0341    5.3711 H   0  0  0  0  0  0  0  0  0  0  0  0
  -38.1134  151.8734    5.2783 H   0  0  0  0  0  0  0  0  0  0  0  0
  -39.7345  152.5678    3.4797 H   0  0  0  0  0  0  0  0  0  0  0  0
  -38.1815  151.8498    2.8543 H   0  0  0  0  0  0  0  0  0  0  0  0
  -39.9401  150.9917    1.5195 H   0  0  0  0  0  0  0  0  0  0  0  0
  -41.4070  150.9610    3.9160 H   0  0  0  0  0  0  0  0  0  0  0  0
  -41.5590  149.5360    3.1450 H   0  0  0  0  0  0  0  0  0  0  0  0
  -39.8696  148.5230    2.1147 H   0  0  0  0  0  0  0  0  0  0  0  0
  -38.2628  149.3722    2.0322 H   0  0  0  0  0  0  0  0  0  0  0  0
  -39.8074  148.6268    4.5565 H   0  0  0  0  0  0  0  0  0  0  0  0
  -38.2904  147.8778    3.9570 H   0  0  0  0  0  0  0  0  0  0  0  0
  -38.7961  157.9755   -0.3544 H   0  0  0  0  0  0  0  0  0  0  0  0
  -40.4124  158.4138   -0.2207 H   0  0  0  0  0  0  0  0  0  0  0  0
  -38.1586  160.7176    1.9009 H   0  0  0  0  0  0  0  0  0  0  0  0
  -39.8207  160.9569    1.8715 H   0  0  0  0  0  0  0  0  0  0  0  0
  1  2  1  0
  2  3  1  0
  3  4  1  0
  4  5  1  0
  5  6  2  0
  6  7  1  0
  7  8  2  0
  8  9  1  0
  9 10  2  0
  9 11  1  0
 11 12  2  0
 12 13  1  0
 13 14  1  0
 14 15  1  0
 15 16  2  0
 16 17  1  0
 17 18  2  0
 18 19  1  0
 19 20  2  0
 20 21  1  0
 21 22  1  0
 22 23  1  0
 23 24  1  0
 24 25  1  0
 25 26  1  0
 25 27  1  0
 27 28  1  0
 21 29  2  0
 29 30  1  0
  2 31  1  0
 31 32  1  0
 32 33  1  0
 33  2  1  0
 10  5  1  0
 30 14  2  0
 13  8  1  0
 29 17  1  0
 28 22  1  0
  1 34  1  0
  1 35  1  0
  1 36  1  0
  3 37  1  0
  3 38  1  0
  6 39  1  0
  7 40  1  0
 10 41  1  0
 12 42  1  0
 15 43  1  0
 16 44  1  0
 18 45  1  0
 19 46  1  0
 20 47  1  0
 23 48  1  0
 23 49  1  0
 24 50  1  0
 24 51  1  0
 25 52  1  0
 26 53  1  0
 26 54  1  0
 27 55  1  0
 27 56  1  0
 28 57  1  0
 28 58  1  0
 31 59  1  0
 31 60  1  0
 33 61  1  0
 33 62  1  0
M  END
>  <meeko>  (9) 
{"is_sidechain": false}

>  <vina_affinity_kcal_mol>  (9) 
-8.214

>  <pose_rank>  (9) 
9

$$$$

     RDKit          3D

 62 67  0  0  0  0  0  0  0  0999 V2000
  -37.8220  153.7410    6.8780 C   0  0  0  0  0  0  0  0  0  0  0  0
  -36.3050  153.8530    6.8720 C   0  0  0  0  0  0  0  0  0  0  0  0
  -35.6020  152.6570    7.5160 C   0  0  0  0  0  0  0  0  0  0  0  0
  -36.4400  151.5090    7.3670 O   0  0  0  0  0  0  0  0  0  0  0  0
  -36.2360  150.7180    6.2700 C   0  0  0  0  0  0  0  0  0  0  0  0
  -35.0050  150.4400    5.6790 C   0  0  0  0  0  0  0  0  0  0  0  0
  -34.9040  149.6100    4.5500 C   0  0  0  0  0  0  0  0  0  0  0  0
  -36.0840  149.0730    4.0100 C   0  0  0  0  0  0  0  0  0  0  0  0
  -37.3200  149.3060    4.6250 C   0  0  0  0  0  0  0  0  0  0  0  0
  -37.3980  150.1420    5.7490 C   0  0  0  0  0  0  0  0  0  0  0  0
  -38.3280  148.6190    4.0100 N   0  0  0  0  0  0  0  0  0  0  0  0
  -37.7410  147.9670    3.0350 C   0  0  0  0  0  0  0  0  0  0  0  0
  -36.3910  148.2410    2.9360 N   0  0  0  0  0  0  0  0  0  0  0  0
  -35.5740  147.7140    1.8920 C   0  0  0  0  0  0  0  0  0  0  0  0
  -34.1940  147.7610    1.9470 C   0  0  0  0  0  0  0  0  0  0  0  0
  -33.4740  147.2280    0.8810 C   0  0  0  0  0  0  0  0  0  0  0  0
  -34.1380  146.6700   -0.2180 C   0  0  0  0  0  0  0  0  0  0  0  0
  -33.4100  146.1430   -1.2930 C   0  0  0  0  0  0  0  0  0  0  0  0
  -34.0720  145.6090   -2.3900 C   0  0  0  0  0  0  0  0  0  0  0  0
  -35.4630  145.5980   -2.4170 C   0  0  0  0  0  0  0  0  0  0  0  0
  -36.2240  146.1130   -1.3490 C   0  0  0  0  0  0  0  0  0  0  0  0
  -37.6440  146.0940   -1.3900 N   0  0  0  0  0  0  0  0  0  0  0  0
  -38.2030  144.7320   -1.3840 C   0  0  0  0  0  0  0  0  0  0  0  0
  -39.6770  144.7870   -0.9790 C   0  0  0  0  0  0  0  0  0  0  0  0
  -40.4920  145.7670   -1.8300 C   0  0  0  0  0  0  0  0  0  0  0  0
  -40.7480  145.2450   -3.1800 N   0  0  0  0  0  0  0  0  0  0  0  0
  -39.7990  147.1320   -1.8900 C   0  0  0  0  0  0  0  0  0  0  0  0
  -38.3290  147.0260   -2.2930 C   0  0  0  0  0  0  0  0  0  0  0  0
  -35.5490  146.6650   -0.2240 C   0  0  0  0  0  0  0  0  0  0  0  0
  -36.2300  147.1950    0.8230 N   0  0  0  0  0  0  0  0  0  0  0  0
  -35.7060  154.2290    5.5040 C   0  0  0  0  0  0  0  0  0  0  0  0
  -34.9530  155.3160    6.0960 O   0  0  0  0  0  0  0  0  0  0  0  0
  -35.7380  155.2140    7.3140 C   0  0  0  0  0  0  0  0  0  0  0  0
  -38.1836  153.7143    7.9165 H   0  0  0  0  0  0  0  0  0  0  0  0
  -38.2558  154.6096    6.3609 H   0  0  0  0  0  0  0  0  0  0  0  0
  -38.1236  152.8181    6.3609 H   0  0  0  0  0  0  0  0  0  0  0  0
  -34.6374  152.4803    7.0177 H   0  0  0  0  0  0  0  0  0  0  0  0
  -35.4177  152.8553    8.5822 H   0  0  0  0  0  0  0  0  0  0  0  0
  -34.0919  150.8803    6.1060 H   0  0  0  0  0  0  0  0  0  0  0  0
  -33.9253  149.3864    4.1003 H   0  0  0  0  0  0  0  0  0  0  0  0
  -38.3717  150.3437    6.2193 H   0  0  0  0  0  0  0  0  0  0  0  0
  -38.2697  147.2731    2.3649 H   0  0  0  0  0  0  0  0  0  0  0  0
  -33.6781  148.2075    2.8098 H   0  0  0  0  0  0  0  0  0  0  0  0
  -32.3743  147.2455    0.9025 H   0  0  0  0  0  0  0  0  0  0  0  0
  -32.3103  146.1525   -1.2675 H   0  0  0  0  0  0  0  0  0  0  0  0
  -33.4996  145.1965   -3.2339 H   0  0  0  0  0  0  0  0  0  0  0  0
  -35.9803  145.1777   -3.2920 H   0  0  0  0  0  0  0  0  0  0  0  0
  -38.1152  144.2953   -2.3898 H   0  0  0  0  0  0  0  0  0  0  0  0
  -37.6483  144.1114   -0.6649 H   0  0  0  0  0  0  0  0  0  0  0  0
  -40.1095  143.7817   -1.0900 H   0  0  0  0  0  0  0  0  0  0  0  0
  -39.7208  145.1381    0.0626 H   0  0  0  0  0  0  0  0  0  0  0  0
  -41.4708  145.8922   -1.3438 H   0  0  0  0  0  0  0  0  0  0  0  0
  -40.7090  144.2260   -3.1600 H   0  0  0  0  0  0  0  0  0  0  0  0
  -40.0170  145.5410   -3.8240 H   0  0  0  0  0  0  0  0  0  0  0  0
  -40.3218  147.7608   -2.6258 H   0  0  0  0  0  0  0  0  0  0  0  0
  -39.8379  147.5706   -0.8820 H   0  0  0  0  0  0  0  0  0  0  0  0
  -38.2572  146.6559   -3.3264 H   0  0  0  0  0  0  0  0  0  0  0  0
  -37.8566  148.0172   -2.2267 H   0  0  0  0  0  0  0  0  0  0  0  0
  -35.0770  153.4416    5.0631 H   0  0  0  0  0  0  0  0  0  0  0  0
  -36.3735  154.4282    4.6527 H   0  0  0  0  0  0  0  0  0  0  0  0
  -35.1319  155.1665    8.2307 H   0  0  0  0  0  0  0  0  0  0  0  0
  -36.4243  156.0277    7.5914 H   0  0  0  0  0  0  0  0  0  0  0  0
  1  2  1  0
  2  3  1  0
  3  4  1  0
  4  5  1  0
  5  6  2  0
  6  7  1  0
  7  8  2  0
  8  9  1  0
  9 10  2  0
  9 11  1  0
 11 12  2  0
 12 13  1  0
 13 14  1  0
 14 15  1  0
 15 16  2  0
 16 17  1  0
 17 18  2  0
 18 19  1  0
 19 20  2  0
 20 21  1  0
 21 22  1  0
 22 23  1  0
 23 24  1  0
 24 25  1  0
 25 26  1  0
 25 27  1  0
 27 28  1  0
 21 29  2  0
 29 30  1  0
  2 31  1  0
 31 32  1  0
 32 33  1  0
 33  2  1  0
 10  5  1  0
 30 14  2  0
 13  8  1  0
 29 17  1  0
 28 22  1  0
  1 34  1  0
  1 35  1  0
  1 36  1  0
  3 37  1  0
  3 38  1  0
  6 39  1  0
  7 40  1  0
 10 41  1  0
 12 42  1  0
 15 43  1  0
 16 44  1  0
 18 45  1  0
 19 46  1  0
 20 47  1  0
 23 48  1  0
 23 49  1  0
 24 50  1  0
 24 51  1  0
 25 52  1  0
 26 53  1  0
 26 54  1  0
 27 55  1  0
 27 56  1  0
 28 57  1  0
 28 58  1  0
 31 59  1  0
 31 60  1  0
 33 61  1  0
 33 62  1  0
M  END
>  <meeko>  (10) 
{"is_sidechain": false}

>  <vina_affinity_kcal_mol>  (10) 
-8.144

>  <pose_rank>  (10) 
10

$$$$
