
     RDKit          3D

 46 49  0  0  0  0  0  0  0  0999 V2000
    5.7960    0.0080   -2.8712 C   0  0  0  0  0  0  0  0  0  0  0  0
    5.5672    0.0861   -1.4517 N   0  0  0  0  0  0  0  0  0  0  0  0
    4.9044    1.1556   -0.8933 C   0  0  0  0  0  0  0  0  0  0  0  0
    4.5676    2.1543   -1.5198 O   0  0  0  0  0  0  0  0  0  0  0  0
    4.6272    1.0722    0.5635 C   0  0  0  0  0  0  0  0  0  0  0  0
    4.9357    2.2186    1.3146 C   0  0  0  0  0  0  0  0  0  0  0  0
    4.7185    2.2426    2.6915 C   0  0  0  0  0  0  0  0  0  0  0  0
    4.1840    1.1257    3.3263 C   0  0  0  0  0  0  0  0  0  0  0  0
    3.8555   -0.0110    2.5836 C   0  0  0  0  0  0  0  0  0  0  0  0
    4.0613   -0.0500    1.1943 C   0  0  0  0  0  0  0  0  0  0  0  0
    3.5437   -1.5358    0.3347 S   0  0  0  0  0  0  0  0  0  0  0  0
    1.8178   -1.1555    0.0569 C   0  0  0  0  0  0  0  0  0  0  0  0
    0.8410   -1.8708    0.7568 C   0  0  0  0  0  0  0  0  0  0  0  0
   -0.5237   -1.6055    0.5692 C   0  0  0  0  0  0  0  0  0  0  0  0
   -0.9086   -0.6023   -0.3423 C   0  0  0  0  0  0  0  0  0  0  0  0
   -2.1374   -0.0398   -0.8074 C   0  0  0  0  0  0  0  0  0  0  0  0
   -3.4394   -0.4488   -0.3676 C   0  0  0  0  0  0  0  0  0  0  0  0
   -4.5962    0.0808   -0.8023 C   0  0  0  0  0  0  0  0  0  0  0  0
   -5.9224   -0.3479   -0.3429 C   0  0  0  0  0  0  0  0  0  0  0  0
   -7.0654    0.2615   -0.8527 C   0  0  0  0  0  0  0  0  0  0  0  0
   -8.3133   -0.1625   -0.4015 C   0  0  0  0  0  0  0  0  0  0  0  0
   -8.3858   -1.1790    0.5421 C   0  0  0  0  0  0  0  0  0  0  0  0
   -7.2009   -1.7313    0.9970 C   0  0  0  0  0  0  0  0  0  0  0  0
   -5.9772   -1.3405    0.5779 N   0  0  0  0  0  0  0  0  0  0  0  0
   -1.9190    0.9258   -1.7139 N   0  0  0  0  0  0  0  0  0  0  0  0
   -0.5824    0.9794   -1.8221 N   0  0  0  0  0  0  0  0  0  0  0  0
    0.0834    0.0859   -1.0300 C   0  0  0  0  0  0  0  0  0  0  0  0
    1.4504   -0.1654   -0.8657 C   0  0  0  0  0  0  0  0  0  0  0  0
    6.5870   -0.7223   -3.0565 H   0  0  0  0  0  0  0  0  0  0  0  0
    6.0893    0.9850   -3.2644 H   0  0  0  0  0  0  0  0  0  0  0  0
    4.8714   -0.3166   -3.3558 H   0  0  0  0  0  0  0  0  0  0  0  0
    5.6668   -0.7593   -0.9019 H   0  0  0  0  0  0  0  0  0  0  0  0
    5.3499    3.0964    0.8209 H   0  0  0  0  0  0  0  0  0  0  0  0
    4.9631    3.1333    3.2654 H   0  0  0  0  0  0  0  0  0  0  0  0
    4.0102    1.1414    4.3998 H   0  0  0  0  0  0  0  0  0  0  0  0
    3.4214   -0.8647    3.1008 H   0  0  0  0  0  0  0  0  0  0  0  0
    1.1289   -2.6474    1.4622 H   0  0  0  0  0  0  0  0  0  0  0  0
   -1.2687   -2.1693    1.1232 H   0  0  0  0  0  0  0  0  0  0  0  0
   -3.4785   -1.2453    0.3709 H   0  0  0  0  0  0  0  0  0  0  0  0
   -4.5742    0.8779   -1.5404 H   0  0  0  0  0  0  0  0  0  0  0  0
   -6.9956    1.0548   -1.5898 H   0  0  0  0  0  0  0  0  0  0  0  0
   -9.2193    0.2980   -0.7848 H   0  0  0  0  0  0  0  0  0  0  0  0
   -9.3407   -1.5324    0.9139 H   0  0  0  0  0  0  0  0  0  0  0  0
   -7.2031   -2.5286    1.7346 H   0  0  0  0  0  0  0  0  0  0  0  0
   -0.1786    1.6564   -2.4593 H   0  0  0  0  0  0  0  0  0  0  0  0
    2.1886    0.3921   -1.4330 H   0  0  0  0  0  0  0  0  0  0  0  0
  1  2  1  0
  2  3  1  0
  3  4  2  0
  3  5  1  0
  5  6  2  0
  6  7  1  0
  7  8  2  0
  8  9  1  0
  9 10  2  0
 10 11  1  0
 11 12  1  0
 12 13  2  0
 13 14  1  0
 14 15  2  0
 15 16  1  0
 16 17  1  0
 17 18  2  0
 18 19  1  0
 19 20  2  0
 20 21  1  0
 21 22  2  0
 22 23  1  0
 23 24  2  0
 16 25  2  0
 25 26  1  0
 26 27  1  0
 27 28  2  0
 10  5  1  0
 28 12  1  0
 27 15  1  0
 24 19  1  0
  1 29  1  0
  1 30  1  0
  1 31  1  0
  2 32  1  0
  6 33  1  0
  7 34  1  0
  8 35  1  0
  9 36  1  0
 13 37  1  0
 14 38  1  0
 17 39  1  0
 18 40  1  0
 20 41  1  0
 21 42  1  0
 22 43  1  0
 23 44  1  0
 26 45  1  0
 28 46  1  0
M  END
$$$$
