
     RDKit          3D

 46 49  0  0  0  0  0  0  0  0999 V2000
  -37.9650  156.7530    3.8010 C   0  0  0  0  0  0  0  0  0  0  0  0
  -39.0150  157.5310    3.1980 N   0  0  0  0  0  0  0  0  0  0  0  0
  -38.8590  158.1000    1.9530 C   0  0  0  0  0  0  0  0  0  0  0  0
  -37.8060  158.0900    1.3260 O   0  0  0  0  0  0  0  0  0  0  0  0
  -40.0480  158.7830    1.3860 C   0  0  0  0  0  0  0  0  0  0  0  0
  -41.0190  159.1990    2.3140 C   0  0  0  0  0  0  0  0  0  0  0  0
  -42.1770  159.8470    1.8850 C   0  0  0  0  0  0  0  0  0  0  0  0
  -42.3700  160.0900    0.5300 C   0  0  0  0  0  0  0  0  0  0  0  0
  -41.4020  159.6980   -0.3980 C   0  0  0  0  0  0  0  0  0  0  0  0
  -40.2250  159.0510    0.0170 C   0  0  0  0  0  0  0  0  0  0  0  0
  -39.0240  158.6510   -1.2520 S   0  0  0  0  0  0  0  0  0  0  0  0
  -38.9530  160.2120   -2.1240 C   0  0  0  0  0  0  0  0  0  0  0  0
  -38.8790  160.2100   -3.5200 C   0  0  0  0  0  0  0  0  0  0  0  0
  -38.8210  161.4120   -4.2430 C   0  0  0  0  0  0  0  0  0  0  0  0
  -38.8370  162.6350   -3.5440 C   0  0  0  0  0  0  0  0  0  0  0  0
  -38.7980  164.0220   -3.8810 C   0  0  0  0  0  0  0  0  0  0  0  0
  -38.7240  164.5340   -5.2180 C   0  0  0  0  0  0  0  0  0  0  0  0
  -38.1240  163.9100   -6.2470 C   0  0  0  0  0  0  0  0  0  0  0  0
  -38.0560  164.4470   -7.6100 C   0  0  0  0  0  0  0  0  0  0  0  0
  -37.9210  163.5810   -8.6930 C   0  0  0  0  0  0  0  0  0  0  0  0
  -37.8600  164.1150   -9.9780 C   0  0  0  0  0  0  0  0  0  0  0  0
  -37.9330  165.4920  -10.1480 C   0  0  0  0  0  0  0  0  0  0  0  0
  -38.0660  166.2810   -9.0180 C   0  0  0  0  0  0  0  0  0  0  0  0
  -38.1300  165.7920   -7.7600 N   0  0  0  0  0  0  0  0  0  0  0  0
  -38.8390  164.7930   -2.7830 N   0  0  0  0  0  0  0  0  0  0  0  0
  -38.9040  163.9160   -1.7690 N   0  0  0  0  0  0  0  0  0  0  0  0
  -38.9020  162.6060   -2.1560 C   0  0  0  0  0  0  0  0  0  0  0  0
  -38.9530  161.4210   -1.4120 C   0  0  0  0  0  0  0  0  0  0  0  0
  -38.0466  156.8135    4.8963 H   0  0  0  0  0  0  0  0  0  0  0  0
  -38.0576  155.7038    3.4838 H   0  0  0  0  0  0  0  0  0  0  0  0
  -36.9882  157.1471    3.4838 H   0  0  0  0  0  0  0  0  0  0  0  0
  -39.9520  157.4480    3.5740 H   0  0  0  0  0  0  0  0  0  0  0  0
  -40.8640  159.0119    3.3868 H   0  0  0  0  0  0  0  0  0  0  0  0
  -42.9349  160.1647    2.6162 H   0  0  0  0  0  0  0  0  0  0  0  0
  -43.2869  160.5920    0.1877 H   0  0  0  0  0  0  0  0  0  0  0  0
  -41.5630  159.8983   -1.4676 H   0  0  0  0  0  0  0  0  0  0  0  0
  -38.8660  159.2519   -4.0603 H   0  0  0  0  0  0  0  0  0  0  0  0
  -38.7638  161.3990   -5.3414 H   0  0  0  0  0  0  0  0  0  0  0  0
  -39.1926  165.5092   -5.4168 H   0  0  0  0  0  0  0  0  0  0  0  0
  -37.6541  162.9343   -6.0541 H   0  0  0  0  0  0  0  0  0  0  0  0
  -37.8636  162.4938   -8.5359 H   0  0  0  0  0  0  0  0  0  0  0  0
  -37.7550  163.4528  -10.8500 H   0  0  0  0  0  0  0  0  0  0  0  0
  -37.8865  165.9421  -11.1506 H   0  0  0  0  0  0  0  0  0  0  0  0
  -38.1230  167.3713   -9.1524 H   0  0  0  0  0  0  0  0  0  0  0  0
  -38.9510  164.2780   -0.8240 H   0  0  0  0  0  0  0  0  0  0  0  0
  -38.9915  161.4372   -0.3128 H   0  0  0  0  0  0  0  0  0  0  0  0
  1  2  1  0
  2  3  1  0
  3  4  2  0
  3  5  1  0
  5  6  2  0
  6  7  1  0
  7  8  2  0
  8  9  1  0
  9 10  2  0
 10 11  1  0
 11 12  1  0
 12 13  2  0
 13 14  1  0
 14 15  2  0
 15 16  1  0
 16 17  1  0
 17 18  2  0
 18 19  1  0
 19 20  2  0
 20 21  1  0
 21 22  2  0
 22 23  1  0
 23 24  2  0
 16 25  2  0
 25 26  1  0
 26 27  1  0
 27 28  2  0
 10  5  1  0
 28 12  1  0
 27 15  1  0
 24 19  1  0
  1 29  1  0
  1 30  1  0
  1 31  1  0
  2 32  1  0
  6 33  1  0
  7 34  1  0
  8 35  1  0
  9 36  1  0
 13 37  1  0
 14 38  1  0
 17 39  1  0
 18 40  1  0
 20 41  1  0
 21 42  1  0
 22 43  1  0
 23 44  1  0
 26 45  1  0
 28 46  1  0
M  END
>  <meeko>  (1) 
{"is_sidechain": false}

>  <vina_affinity_kcal_mol>  (1) 
-10.99

>  <pose_rank>  (1) 
1

$$$$

     RDKit          3D

 46 49  0  0  0  0  0  0  0  0999 V2000
  -36.2890  160.9930   -8.0570 C   0  0  0  0  0  0  0  0  0  0  0  0
  -36.6630  161.6970   -6.8580 N   0  0  0  0  0  0  0  0  0  0  0  0
  -37.7820  162.4980   -6.8190 C   0  0  0  0  0  0  0  0  0  0  0  0
  -38.4660  162.7630   -7.8000 O   0  0  0  0  0  0  0  0  0  0  0  0
  -38.1300  163.0810   -5.4980 C   0  0  0  0  0  0  0  0  0  0  0  0
  -37.7850  164.4310   -5.3130 C   0  0  0  0  0  0  0  0  0  0  0  0
  -38.0640  165.0740   -4.1070 C   0  0  0  0  0  0  0  0  0  0  0  0
  -38.6940  164.3750   -3.0820 C   0  0  0  0  0  0  0  0  0  0  0  0
  -39.0570  163.0390   -3.2640 C   0  0  0  0  0  0  0  0  0  0  0  0
  -38.7920  162.3780   -4.4760 C   0  0  0  0  0  0  0  0  0  0  0  0
  -39.3600  160.6840   -4.6220 S   0  0  0  0  0  0  0  0  0  0  0  0
  -39.1400  160.1310   -2.9340 C   0  0  0  0  0  0  0  0  0  0  0  0
  -38.2370  159.0970   -2.6670 C   0  0  0  0  0  0  0  0  0  0  0  0
  -38.0340  158.6330   -1.3590 C   0  0  0  0  0  0  0  0  0  0  0  0
  -38.7570  159.2210   -0.3020 C   0  0  0  0  0  0  0  0  0  0  0  0
  -38.8440  159.0540    1.1140 C   0  0  0  0  0  0  0  0  0  0  0  0
  -38.0890  158.0990    1.8700 C   0  0  0  0  0  0  0  0  0  0  0  0
  -37.9790  158.0960    3.2100 C   0  0  0  0  0  0  0  0  0  0  0  0
  -37.2010  157.1110    3.9710 C   0  0  0  0  0  0  0  0  0  0  0  0
  -37.8520  156.0810    4.6440 C   0  0  0  0  0  0  0  0  0  0  0  0
  -37.0920  155.1580    5.3590 C   0  0  0  0  0  0  0  0  0  0  0  0
  -35.7100  155.2880    5.3840 C   0  0  0  0  0  0  0  0  0  0  0  0
  -35.1430  156.3410    4.6870 C   0  0  0  0  0  0  0  0  0  0  0  0
  -35.8530  157.2510    3.9850 N   0  0  0  0  0  0  0  0  0  0  0  0
  -39.7290  159.9090    1.6530 N   0  0  0  0  0  0  0  0  0  0  0  0
  -40.1930  160.6060    0.6040 N   0  0  0  0  0  0  0  0  0  0  0  0
  -39.6550  160.2400   -0.5980 C   0  0  0  0  0  0  0  0  0  0  0  0
  -39.8800  160.7160   -1.8950 C   0  0  0  0  0  0  0  0  0  0  0  0
  -35.7886  160.0510   -7.7881 H   0  0  0  0  0  0  0  0  0  0  0  0
  -37.1895  160.7737   -8.6494 H   0  0  0  0  0  0  0  0  0  0  0  0
  -35.6032  161.6164   -8.6494 H   0  0  0  0  0  0  0  0  0  0  0  0
  -36.2500  161.4040   -5.9800 H   0  0  0  0  0  0  0  0  0  0  0  0
  -37.2913  164.9845   -6.1253 H   0  0  0  0  0  0  0  0  0  0  0  0
  -37.7871  166.1293   -3.9668 H   0  0  0  0  0  0  0  0  0  0  0  0
  -38.9066  164.8760   -2.1261 H   0  0  0  0  0  0  0  0  0  0  0  0
  -39.5570  162.4965   -2.4481 H   0  0  0  0  0  0  0  0  0  0  0  0
  -37.6769  158.6402   -3.4962 H   0  0  0  0  0  0  0  0  0  0  0  0
  -37.3195  157.8204   -1.1608 H   0  0  0  0  0  0  0  0  0  0  0  0
  -37.5609  157.3108    1.3133 H   0  0  0  0  0  0  0  0  0  0  0  0
  -38.5055  158.8816    3.7717 H   0  0  0  0  0  0  0  0  0  0  0  0
  -38.9483  155.9972    4.6118 H   0  0  0  0  0  0  0  0  0  0  0  0
  -37.5821  154.3342    5.8985 H   0  0  0  0  0  0  0  0  0  0  0  0
  -35.0841  154.5753    5.9412 H   0  0  0  0  0  0  0  0  0  0  0  0
  -34.0479  156.4430    4.7059 H   0  0  0  0  0  0  0  0  0  0  0  0
  -40.8820  161.3280    0.7750 H   0  0  0  0  0  0  0  0  0  0  0  0
  -40.6080  161.5168   -2.0920 H   0  0  0  0  0  0  0  0  0  0  0  0
  1  2  1  0
  2  3  1  0
  3  4  2  0
  3  5  1  0
  5  6  2  0
  6  7  1  0
  7  8  2  0
  8  9  1  0
  9 10  2  0
 10 11  1  0
 11 12  1  0
 12 13  2  0
 13 14  1  0
 14 15  2  0
 15 16  1  0
 16 17  1  0
 17 18  2  0
 18 19  1  0
 19 20  2  0
 20 21  1  0
 21 22  2  0
 22 23  1  0
 23 24  2  0
 16 25  2  0
 25 26  1  0
 26 27  1  0
 27 28  2  0
 10  5  1  0
 28 12  1  0
 27 15  1  0
 24 19  1  0
  1 29  1  0
  1 30  1  0
  1 31  1  0
  2 32  1  0
  6 33  1  0
  7 34  1  0
  8 35  1  0
  9 36  1  0
 13 37  1  0
 14 38  1  0
 17 39  1  0
 18 40  1  0
 20 41  1  0
 21 42  1  0
 22 43  1  0
 23 44  1  0
 26 45  1  0
 28 46  1  0
M  END
>  <meeko>  (2) 
{"is_sidechain": false}

>  <vina_affinity_kcal_mol>  (2) 
-10.451

>  <pose_rank>  (2) 
2

$$$$

     RDKit          3D

 46 49  0  0  0  0  0  0  0  0999 V2000
  -37.8020  169.4960  -10.6690 C   0  0  0  0  0  0  0  0  0  0  0  0
  -36.9440  168.3410  -10.6840 N   0  0  0  0  0  0  0  0  0  0  0  0
  -37.2520  167.2310  -11.4390 C   0  0  0  0  0  0  0  0  0  0  0  0
  -38.3060  167.0920  -12.0480 O   0  0  0  0  0  0  0  0  0  0  0  0
  -36.2370  166.1490  -11.4640 C   0  0  0  0  0  0  0  0  0  0  0  0
  -34.8980  166.5630  -11.5800 C   0  0  0  0  0  0  0  0  0  0  0  0
  -33.8670  165.6260  -11.6170 C   0  0  0  0  0  0  0  0  0  0  0  0
  -34.1640  164.2690  -11.5320 C   0  0  0  0  0  0  0  0  0  0  0  0
  -35.4890  163.8490  -11.3970 C   0  0  0  0  0  0  0  0  0  0  0  0
  -36.5400  164.7800  -11.3490 C   0  0  0  0  0  0  0  0  0  0  0  0
  -38.1940  164.1320  -11.1090 S   0  0  0  0  0  0  0  0  0  0  0  0
  -38.1680  163.8460   -9.3430 C   0  0  0  0  0  0  0  0  0  0  0  0
  -38.1930  162.5320   -8.8650 C   0  0  0  0  0  0  0  0  0  0  0  0
  -38.1740  162.2630   -7.4870 C   0  0  0  0  0  0  0  0  0  0  0  0
  -38.1310  163.3380   -6.5780 C   0  0  0  0  0  0  0  0  0  0  0  0
  -38.0990  163.4940   -5.1590 C   0  0  0  0  0  0  0  0  0  0  0  0
  -38.1030  162.4120   -4.2190 C   0  0  0  0  0  0  0  0  0  0  0  0
  -39.1660  162.0390   -3.4850 C   0  0  0  0  0  0  0  0  0  0  0  0
  -39.1560  160.9280   -2.5260 C   0  0  0  0  0  0  0  0  0  0  0  0
  -38.5050  159.7400   -2.8450 C   0  0  0  0  0  0  0  0  0  0  0  0
  -38.5080  158.7000   -1.9180 C   0  0  0  0  0  0  0  0  0  0  0  0
  -39.1590  158.8730   -0.7030 C   0  0  0  0  0  0  0  0  0  0  0  0
  -39.7820  160.0860   -0.4660 C   0  0  0  0  0  0  0  0  0  0  0  0
  -39.7950  161.1130   -1.3440 N   0  0  0  0  0  0  0  0  0  0  0  0
  -38.0650  164.7910   -4.8120 N   0  0  0  0  0  0  0  0  0  0  0  0
  -38.0730  165.4450   -5.9840 N   0  0  0  0  0  0  0  0  0  0  0  0
  -38.1160  164.6330   -7.0820 C   0  0  0  0  0  0  0  0  0  0  0  0
  -38.1420  164.9280   -8.4500 C   0  0  0  0  0  0  0  0  0  0  0  0
  -38.0142  169.7816   -9.6281 H   0  0  0  0  0  0  0  0  0  0  0  0
  -37.3029  170.3303  -11.1837 H   0  0  0  0  0  0  0  0  0  0  0  0
  -38.7448  169.2591  -11.1837 H   0  0  0  0  0  0  0  0  0  0  0  0
  -35.9950  168.4440  -10.3430 H   0  0  0  0  0  0  0  0  0  0  0  0
  -34.6624  167.6357  -11.6421 H   0  0  0  0  0  0  0  0  0  0  0  0
  -32.8226  165.9577  -11.7130 H   0  0  0  0  0  0  0  0  0  0  0  0
  -33.3538  163.5261  -11.5712 H   0  0  0  0  0  0  0  0  0  0  0  0
  -35.7129  162.7743  -11.3273 H   0  0  0  0  0  0  0  0  0  0  0  0
  -38.2281  161.6964   -9.5795 H   0  0  0  0  0  0  0  0  0  0  0  0
  -38.1925  161.2255   -7.1219 H   0  0  0  0  0  0  0  0  0  0  0  0
  -37.1689  161.8459   -4.0887 H   0  0  0  0  0  0  0  0  0  0  0  0
  -40.1024  162.6022   -3.6112 H   0  0  0  0  0  0  0  0  0  0  0  0
  -37.9963  159.6241   -3.8134 H   0  0  0  0  0  0  0  0  0  0  0  0
  -38.0000  157.7513   -2.1459 H   0  0  0  0  0  0  0  0  0  0  0  0
  -39.1787  158.0698    0.0483 H   0  0  0  0  0  0  0  0  0  0  0  0
  -40.2981  160.2223    0.4958 H   0  0  0  0  0  0  0  0  0  0  0  0
  -38.0430  166.4580   -5.9690 H   0  0  0  0  0  0  0  0  0  0  0  0
  -38.1420  165.9671   -8.8108 H   0  0  0  0  0  0  0  0  0  0  0  0
  1  2  1  0
  2  3  1  0
  3  4  2  0
  3  5  1  0
  5  6  2  0
  6  7  1  0
  7  8  2  0
  8  9  1  0
  9 10  2  0
 10 11  1  0
 11 12  1  0
 12 13  2  0
 13 14  1  0
 14 15  2  0
 15 16  1  0
 16 17  1  0
 17 18  2  0
 18 19  1  0
 19 20  2  0
 20 21  1  0
 21 22  2  0
 22 23  1  0
 23 24  2  0
 16 25  2  0
 25 26  1  0
 26 27  1  0
 27 28  2  0
 10  5  1  0
 28 12  1  0
 27 15  1  0
 24 19  1  0
  1 29  1  0
  1 30  1  0
  1 31  1  0
  2 32  1  0
  6 33  1  0
  7 34  1  0
  8 35  1  0
  9 36  1  0
 13 37  1  0
 14 38  1  0
 17 39  1  0
 18 40  1  0
 20 41  1  0
 21 42  1  0
 22 43  1  0
 23 44  1  0
 26 45  1  0
 28 46  1  0
M  END
>  <meeko>  (3) 
{"is_sidechain": false}

>  <vina_affinity_kcal_mol>  (3) 
-10.146

>  <pose_rank>  (3) 
3

$$$$

     RDKit          3D

 46 49  0  0  0  0  0  0  0  0999 V2000
  -34.0150  166.4300  -12.0590 C   0  0  0  0  0  0  0  0  0  0  0  0
  -35.0500  165.4310  -12.1170 N   0  0  0  0  0  0  0  0  0  0  0  0
  -34.9730  164.2780  -11.3680 C   0  0  0  0  0  0  0  0  0  0  0  0
  -33.9950  163.9610  -10.7010 O   0  0  0  0  0  0  0  0  0  0  0  0
  -36.1510  163.3760  -11.4230 C   0  0  0  0  0  0  0  0  0  0  0  0
  -35.9400  162.1250  -12.0280 C   0  0  0  0  0  0  0  0  0  0  0  0
  -36.9820  161.2050  -12.1350 C   0  0  0  0  0  0  0  0  0  0  0  0
  -38.2390  161.5250  -11.6320 C   0  0  0  0  0  0  0  0  0  0  0  0
  -38.4530  162.7570  -11.0110 C   0  0  0  0  0  0  0  0  0  0  0  0
  -37.4120  163.6940  -10.8870 C   0  0  0  0  0  0  0  0  0  0  0  0
  -37.7830  165.2160  -10.0160 S   0  0  0  0  0  0  0  0  0  0  0  0
  -37.9900  164.5860   -8.3540 C   0  0  0  0  0  0  0  0  0  0  0  0
  -37.9850  163.2040   -8.1430 C   0  0  0  0  0  0  0  0  0  0  0  0
  -38.1440  162.6680   -6.8560 C   0  0  0  0  0  0  0  0  0  0  0  0
  -38.3120  163.5420   -5.7640 C   0  0  0  0  0  0  0  0  0  0  0  0
  -38.4950  163.4160   -4.3530 C   0  0  0  0  0  0  0  0  0  0  0  0
  -38.5540  162.1690   -3.6470 C   0  0  0  0  0  0  0  0  0  0  0  0
  -39.0690  162.0090   -2.4160 C   0  0  0  0  0  0  0  0  0  0  0  0
  -39.1220  160.7270   -1.7050 C   0  0  0  0  0  0  0  0  0  0  0  0
  -38.6040  159.5800   -2.3010 C   0  0  0  0  0  0  0  0  0  0  0  0
  -38.6650  158.3740   -1.6060 C   0  0  0  0  0  0  0  0  0  0  0  0
  -39.2410  158.3450   -0.3430 C   0  0  0  0  0  0  0  0  0  0  0  0
  -39.7320  159.5300    0.1760 C   0  0  0  0  0  0  0  0  0  0  0  0
  -39.6860  160.7140   -0.4730 N   0  0  0  0  0  0  0  0  0  0  0  0
  -38.6080  164.6180   -3.7660 N   0  0  0  0  0  0  0  0  0  0  0  0
  -38.4960  165.4900   -4.7800 N   0  0  0  0  0  0  0  0  0  0  0  0
  -38.3210  164.9110   -6.0050 C   0  0  0  0  0  0  0  0  0  0  0  0
  -38.1720  165.4700   -7.2790 C   0  0  0  0  0  0  0  0  0  0  0  0
  -33.7815  166.6554  -11.0080 H   0  0  0  0  0  0  0  0  0  0  0  0
  -33.1126  166.0527  -12.5624 H   0  0  0  0  0  0  0  0  0  0  0  0
  -34.3601  167.3452  -12.5624 H   0  0  0  0  0  0  0  0  0  0  0  0
  -35.9470  165.6910  -12.5090 H   0  0  0  0  0  0  0  0  0  0  0  0
  -34.9445  161.8697  -12.4203 H   0  0  0  0  0  0  0  0  0  0  0  0
  -36.8110  160.2302  -12.6151 H   0  0  0  0  0  0  0  0  0  0  0  0
  -39.0662  160.8057  -11.7238 H   0  0  0  0  0  0  0  0  0  0  0  0
  -39.4498  162.9980  -10.6132 H   0  0  0  0  0  0  0  0  0  0  0  0
  -37.8544  162.5261   -8.9994 H   0  0  0  0  0  0  0  0  0  0  0  0
  -38.1375  161.5789   -6.7017 H   0  0  0  0  0  0  0  0  0  0  0  0
  -38.1482  161.2787   -4.1497 H   0  0  0  0  0  0  0  0  0  0  0  0
  -39.4768  162.8960   -1.9092 H   0  0  0  0  0  0  0  0  0  0  0  0
  -38.1542  159.6254   -3.3038 H   0  0  0  0  0  0  0  0  0  0  0  0
  -38.2608  157.4540   -2.0535 H   0  0  0  0  0  0  0  0  0  0  0  0
  -39.3051  157.4073    0.2284 H   0  0  0  0  0  0  0  0  0  0  0  0
  -40.1871  159.5066    1.1772 H   0  0  0  0  0  0  0  0  0  0  0  0
  -38.5440  166.4800   -4.5690 H   0  0  0  0  0  0  0  0  0  0  0  0
  -38.1965  166.5590   -7.4320 H   0  0  0  0  0  0  0  0  0  0  0  0
  1  2  1  0
  2  3  1  0
  3  4  2  0
  3  5  1  0
  5  6  2  0
  6  7  1  0
  7  8  2  0
  8  9  1  0
  9 10  2  0
 10 11  1  0
 11 12  1  0
 12 13  2  0
 13 14  1  0
 14 15  2  0
 15 16  1  0
 16 17  1  0
 17 18  2  0
 18 19  1  0
 19 20  2  0
 20 21  1  0
 21 22  2  0
 22 23  1  0
 23 24  2  0
 16 25  2  0
 25 26  1  0
 26 27  1  0
 27 28  2  0
 10  5  1  0
 28 12  1  0
 27 15  1  0
 24 19  1  0
  1 29  1  0
  1 30  1  0
  1 31  1  0
  2 32  1  0
  6 33  1  0
  7 34  1  0
  8 35  1  0
  9 36  1  0
 13 37  1  0
 14 38  1  0
 17 39  1  0
 18 40  1  0
 20 41  1  0
 21 42  1  0
 22 43  1  0
 23 44  1  0
 26 45  1  0
 28 46  1  0
M  END
>  <meeko>  (4) 
{"is_sidechain": false}

>  <vina_affinity_kcal_mol>  (4) 
-9.778

>  <pose_rank>  (4) 
4

$$$$

     RDKit          3D

 46 49  0  0  0  0  0  0  0  0999 V2000
  -36.1930  157.9020  -10.3250 C   0  0  0  0  0  0  0  0  0  0  0  0
  -37.0680  159.0440  -10.3720 N   0  0  0  0  0  0  0  0  0  0  0  0
  -36.9010  160.0340  -11.3150 C   0  0  0  0  0  0  0  0  0  0  0  0
  -35.9550  160.0830  -12.0920 O   0  0  0  0  0  0  0  0  0  0  0  0
  -37.9300  161.1030  -11.3370 C   0  0  0  0  0  0  0  0  0  0  0  0
  -39.1060  160.8100  -12.0500 C   0  0  0  0  0  0  0  0  0  0  0  0
  -40.1340  161.7480  -12.1370 C   0  0  0  0  0  0  0  0  0  0  0  0
  -39.9990  162.9810  -11.5070 C   0  0  0  0  0  0  0  0  0  0  0  0
  -38.8430  163.2730  -10.7790 C   0  0  0  0  0  0  0  0  0  0  0  0
  -37.8000  162.3370  -10.6740 C   0  0  0  0  0  0  0  0  0  0  0  0
  -36.3920  162.7940   -9.6630 S   0  0  0  0  0  0  0  0  0  0  0  0
  -37.1410  162.7450   -8.0390 C   0  0  0  0  0  0  0  0  0  0  0  0
  -37.3040  161.5120   -7.4000 C   0  0  0  0  0  0  0  0  0  0  0  0
  -37.8870  161.4290   -6.1260 C   0  0  0  0  0  0  0  0  0  0  0  0
  -38.3120  162.6100   -5.4870 C   0  0  0  0  0  0  0  0  0  0  0  0
  -38.9250  162.9520   -4.2430 C   0  0  0  0  0  0  0  0  0  0  0  0
  -39.2890  162.0090   -3.2270 C   0  0  0  0  0  0  0  0  0  0  0  0
  -39.2180  162.2410   -1.9040 C   0  0  0  0  0  0  0  0  0  0  0  0
  -39.5940  161.2660   -0.8750 C   0  0  0  0  0  0  0  0  0  0  0  0
  -38.6280  160.7640   -0.0070 C   0  0  0  0  0  0  0  0  0  0  0  0
  -39.0100  159.8390    0.9620 C   0  0  0  0  0  0  0  0  0  0  0  0
  -40.3390  159.4410    1.0380 C   0  0  0  0  0  0  0  0  0  0  0  0
  -41.2350  159.9890    0.1360 C   0  0  0  0  0  0  0  0  0  0  0  0
  -40.8950  160.8880   -0.8130 N   0  0  0  0  0  0  0  0  0  0  0  0
  -39.1190  164.2770   -4.1430 N   0  0  0  0  0  0  0  0  0  0  0  0
  -38.6390  164.7670   -5.2970 N   0  0  0  0  0  0  0  0  0  0  0  0
  -38.1450  163.8200   -6.1490 C   0  0  0  0  0  0  0  0  0  0  0  0
  -37.5740  163.9290   -7.4220 C   0  0  0  0  0  0  0  0  0  0  0  0
  -35.9907  157.6380   -9.2765 H   0  0  0  0  0  0  0  0  0  0  0  0
  -36.6728  157.0514  -10.8313 H   0  0  0  0  0  0  0  0  0  0  0  0
  -35.2469  158.1439  -10.8313 H   0  0  0  0  0  0  0  0  0  0  0  0
  -37.9510  158.9930   -9.8790 H   0  0  0  0  0  0  0  0  0  0  0  0
  -39.2159  159.8329  -12.5431 H   0  0  0  0  0  0  0  0  0  0  0  0
  -41.0485  161.5139  -12.7018 H   0  0  0  0  0  0  0  0  0  0  0  0
  -40.8037  163.7272  -11.5822 H   0  0  0  0  0  0  0  0  0  0  0  0
  -38.7478  164.2492  -10.2810 H   0  0  0  0  0  0  0  0  0  0  0  0
  -36.9701  160.5928   -7.9036 H   0  0  0  0  0  0  0  0  0  0  0  0
  -38.0105  160.4536   -5.6327 H   0  0  0  0  0  0  0  0  0  0  0  0
  -39.6530  161.0235   -3.5530 H   0  0  0  0  0  0  0  0  0  0  0  0
  -38.8547  163.2250   -1.5726 H   0  0  0  0  0  0  0  0  0  0  0  0
  -37.5810  161.0922   -0.0851 H   0  0  0  0  0  0  0  0  0  0  0  0
  -38.2664  159.4275    1.6604 H   0  0  0  0  0  0  0  0  0  0  0  0
  -40.6695  158.7120    1.7925 H   0  0  0  0  0  0  0  0  0  0  0  0
  -42.2870  159.6733    0.1958 H   0  0  0  0  0  0  0  0  0  0  0  0
  -38.6750  165.7690   -5.4450 H   0  0  0  0  0  0  0  0  0  0  0  0
  -37.4687  164.9044   -7.9196 H   0  0  0  0  0  0  0  0  0  0  0  0
  1  2  1  0
  2  3  1  0
  3  4  2  0
  3  5  1  0
  5  6  2  0
  6  7  1  0
  7  8  2  0
  8  9  1  0
  9 10  2  0
 10 11  1  0
 11 12  1  0
 12 13  2  0
 13 14  1  0
 14 15  2  0
 15 16  1  0
 16 17  1  0
 17 18  2  0
 18 19  1  0
 19 20  2  0
 20 21  1  0
 21 22  2  0
 22 23  1  0
 23 24  2  0
 16 25  2  0
 25 26  1  0
 26 27  1  0
 27 28  2  0
 10  5  1  0
 28 12  1  0
 27 15  1  0
 24 19  1  0
  1 29  1  0
  1 30  1  0
  1 31  1  0
  2 32  1  0
  6 33  1  0
  7 34  1  0
  8 35  1  0
  9 36  1  0
 13 37  1  0
 14 38  1  0
 17 39  1  0
 18 40  1  0
 20 41  1  0
 21 42  1  0
 22 43  1  0
 23 44  1  0
 26 45  1  0
 28 46  1  0
M  END
>  <meeko>  (5) 
{"is_sidechain": false}

>  <vina_affinity_kcal_mol>  (5) 
-9.414

>  <pose_rank>  (5) 
5

$$$$

     RDKit          3D

 46 49  0  0  0  0  0  0  0  0999 V2000
  -35.9470  153.0570    7.1270 C   0  0  0  0  0  0  0  0  0  0  0  0
  -35.9500  154.4290    6.6930 N   0  0  0  0  0  0  0  0  0  0  0  0
  -37.0940  155.1930    6.7450 C   0  0  0  0  0  0  0  0  0  0  0  0
  -38.1970  154.7510    7.0460 O   0  0  0  0  0  0  0  0  0  0  0  0
  -36.9490  156.6240    6.3780 C   0  0  0  0  0  0  0  0  0  0  0  0
  -36.5200  157.4820    7.4060 C   0  0  0  0  0  0  0  0  0  0  0  0
  -36.3560  158.8460    7.1670 C   0  0  0  0  0  0  0  0  0  0  0  0
  -36.6110  159.3610    5.9010 C   0  0  0  0  0  0  0  0  0  0  0  0
  -37.0190  158.5130    4.8690 C   0  0  0  0  0  0  0  0  0  0  0  0
  -37.1820  157.1340    5.0890 C   0  0  0  0  0  0  0  0  0  0  0  0
  -37.6460  156.1320    3.6770 S   0  0  0  0  0  0  0  0  0  0  0  0
  -38.4800  157.3610    2.6790 C   0  0  0  0  0  0  0  0  0  0  0  0
  -37.7730  158.0080    1.6610 C   0  0  0  0  0  0  0  0  0  0  0  0
  -38.3890  158.9770    0.8550 C   0  0  0  0  0  0  0  0  0  0  0  0
  -39.7410  159.3000    1.0810 C   0  0  0  0  0  0  0  0  0  0  0  0
  -40.7040  160.1880    0.5120 C   0  0  0  0  0  0  0  0  0  0  0  0
  -40.4480  161.0750   -0.5850 C   0  0  0  0  0  0  0  0  0  0  0  0
  -39.3490  161.0380   -1.3600 C   0  0  0  0  0  0  0  0  0  0  0  0
  -39.1000  161.9530   -2.4800 C   0  0  0  0  0  0  0  0  0  0  0  0
  -38.9810  161.4510   -3.7740 C   0  0  0  0  0  0  0  0  0  0  0  0
  -38.7450  162.3400   -4.8210 C   0  0  0  0  0  0  0  0  0  0  0  0
  -38.6340  163.6970   -4.5500 C   0  0  0  0  0  0  0  0  0  0  0  0
  -38.7650  164.1120   -3.2360 C   0  0  0  0  0  0  0  0  0  0  0  0
  -38.9950  163.2750   -2.2000 N   0  0  0  0  0  0  0  0  0  0  0  0
  -41.8880  160.0890    1.1370 N   0  0  0  0  0  0  0  0  0  0  0  0
  -41.6840  159.1580    2.0810 N   0  0  0  0  0  0  0  0  0  0  0  0
  -40.4170  158.6480    2.1050 C   0  0  0  0  0  0  0  0  0  0  0  0
  -39.8230  157.6830    2.9270 C   0  0  0  0  0  0  0  0  0  0  0  0
  -35.9469  153.0202    8.2264 H   0  0  0  0  0  0  0  0  0  0  0  0
  -36.8440  152.5491    6.7432 H   0  0  0  0  0  0  0  0  0  0  0  0
  -35.0477  152.5530    6.7432 H   0  0  0  0  0  0  0  0  0  0  0  0
  -35.0600  154.9020    6.5890 H   0  0  0  0  0  0  0  0  0  0  0  0
  -36.3122  157.0742    8.4063 H   0  0  0  0  0  0  0  0  0  0  0  0
  -36.0259  159.5124    7.9775 H   0  0  0  0  0  0  0  0  0  0  0  0
  -36.4912  160.4380    5.7119 H   0  0  0  0  0  0  0  0  0  0  0  0
  -37.2155  158.9298    3.8702 H   0  0  0  0  0  0  0  0  0  0  0  0
  -36.7168  157.7531    1.4893 H   0  0  0  0  0  0  0  0  0  0  0  0
  -37.8229  159.4784    0.0562 H   0  0  0  0  0  0  0  0  0  0  0  0
  -41.2049  161.8411   -0.8091 H   0  0  0  0  0  0  0  0  0  0  0  0
  -38.5891  160.2736   -1.1403 H   0  0  0  0  0  0  0  0  0  0  0  0
  -39.0717  160.3717   -3.9660 H   0  0  0  0  0  0  0  0  0  0  0  0
  -38.6476  161.9700   -5.8523 H   0  0  0  0  0  0  0  0  0  0  0  0
  -38.4473  164.4216   -5.3563 H   0  0  0  0  0  0  0  0  0  0  0  0
  -38.6766  165.1874   -3.0221 H   0  0  0  0  0  0  0  0  0  0  0  0
  -42.4590  158.9080    2.6840 H   0  0  0  0  0  0  0  0  0  0  0  0
  -40.3873  157.1960    3.7360 H   0  0  0  0  0  0  0  0  0  0  0  0
  1  2  1  0
  2  3  1  0
  3  4  2  0
  3  5  1  0
  5  6  2  0
  6  7  1  0
  7  8  2  0
  8  9  1  0
  9 10  2  0
 10 11  1  0
 11 12  1  0
 12 13  2  0
 13 14  1  0
 14 15  2  0
 15 16  1  0
 16 17  1  0
 17 18  2  0
 18 19  1  0
 19 20  2  0
 20 21  1  0
 21 22  2  0
 22 23  1  0
 23 24  2  0
 16 25  2  0
 25 26  1  0
 26 27  1  0
 27 28  2  0
 10  5  1  0
 28 12  1  0
 27 15  1  0
 24 19  1  0
  1 29  1  0
  1 30  1  0
  1 31  1  0
  2 32  1  0
  6 33  1  0
  7 34  1  0
  8 35  1  0
  9 36  1  0
 13 37  1  0
 14 38  1  0
 17 39  1  0
 18 40  1  0
 20 41  1  0
 21 42  1  0
 22 43  1  0
 23 44  1  0
 26 45  1  0
 28 46  1  0
M  END
>  <meeko>  (6) 
{"is_sidechain": false}

>  <vina_affinity_kcal_mol>  (6) 
-9.085

>  <pose_rank>  (6) 
6

$$$$

     RDKit          3D

 46 49  0  0  0  0  0  0  0  0999 V2000
  -35.6120  168.2760  -11.1950 C   0  0  0  0  0  0  0  0  0  0  0  0
  -36.0580  166.9760  -10.7680 N   0  0  0  0  0  0  0  0  0  0  0  0
  -37.3620  166.7600  -10.3780 C   0  0  0  0  0  0  0  0  0  0  0  0
  -38.1930  167.6520  -10.2540 O   0  0  0  0  0  0  0  0  0  0  0  0
  -37.7330  165.3570  -10.0670 C   0  0  0  0  0  0  0  0  0  0  0  0
  -37.8500  164.4930  -11.1700 C   0  0  0  0  0  0  0  0  0  0  0  0
  -38.1980  163.1550  -10.9880 C   0  0  0  0  0  0  0  0  0  0  0  0
  -38.4260  162.6690   -9.7050 C   0  0  0  0  0  0  0  0  0  0  0  0
  -38.2930  163.5150   -8.6010 C   0  0  0  0  0  0  0  0  0  0  0  0
  -37.9340  164.8650   -8.7650 C   0  0  0  0  0  0  0  0  0  0  0  0
  -37.7300  165.8400   -7.2750 S   0  0  0  0  0  0  0  0  0  0  0  0
  -38.1340  164.6140   -6.0370 C   0  0  0  0  0  0  0  0  0  0  0  0
  -39.0180  164.9510   -5.0070 C   0  0  0  0  0  0  0  0  0  0  0  0
  -39.3620  164.0200   -4.0150 C   0  0  0  0  0  0  0  0  0  0  0  0
  -38.8030  162.7280   -4.0630 C   0  0  0  0  0  0  0  0  0  0  0  0
  -38.8860  161.5330   -3.2850 C   0  0  0  0  0  0  0  0  0  0  0  0
  -39.6880  161.3820   -2.1060 C   0  0  0  0  0  0  0  0  0  0  0  0
  -39.9450  160.2100   -1.4990 C   0  0  0  0  0  0  0  0  0  0  0  0
  -40.7690  160.0700   -0.2930 C   0  0  0  0  0  0  0  0  0  0  0  0
  -40.3570  159.2270    0.7360 C   0  0  0  0  0  0  0  0  0  0  0  0
  -41.1560  159.1110    1.8720 C   0  0  0  0  0  0  0  0  0  0  0  0
  -42.3380  159.8350    1.9490 C   0  0  0  0  0  0  0  0  0  0  0  0
  -42.6740  160.6500    0.8810 C   0  0  0  0  0  0  0  0  0  0  0  0
  -41.9200  160.7830   -0.2320 N   0  0  0  0  0  0  0  0  0  0  0  0
  -38.1130  160.5620   -3.7980 N   0  0  0  0  0  0  0  0  0  0  0  0
  -37.5530  161.1260   -4.8790 N   0  0  0  0  0  0  0  0  0  0  0  0
  -37.9200  162.4240   -5.0920 C   0  0  0  0  0  0  0  0  0  0  0  0
  -37.5560  163.3370   -6.0890 C   0  0  0  0  0  0  0  0  0  0  0  0
  -35.3985  168.8983  -10.3134 H   0  0  0  0  0  0  0  0  0  0  0  0
  -34.6988  168.1702  -11.7990 H   0  0  0  0  0  0  0  0  0  0  0  0
  -36.3978  168.7531  -11.7990 H   0  0  0  0  0  0  0  0  0  0  0  0
  -35.4850  166.1720  -10.9950 H   0  0  0  0  0  0  0  0  0  0  0  0
  -37.6655  164.8756  -12.1847 H   0  0  0  0  0  0  0  0  0  0  0  0
  -38.2919  162.4862  -11.8562 H   0  0  0  0  0  0  0  0  0  0  0  0
  -38.7115  161.6168   -9.5591 H   0  0  0  0  0  0  0  0  0  0  0  0
  -38.4714  163.1199   -7.5900 H   0  0  0  0  0  0  0  0  0  0  0  0
  -39.4505  165.9619   -4.9740 H   0  0  0  0  0  0  0  0  0  0  0  0
  -40.0593  164.2957   -3.2102 H   0  0  0  0  0  0  0  0  0  0  0  0
  -40.1247  162.2908   -1.6662 H   0  0  0  0  0  0  0  0  0  0  0  0
  -39.5099  159.2983   -1.9342 H   0  0  0  0  0  0  0  0  0  0  0  0
  -39.4167  158.6622    0.6536 H   0  0  0  0  0  0  0  0  0  0  0  0
  -40.8531  158.4524    2.6993 H   0  0  0  0  0  0  0  0  0  0  0  0
  -42.9889  159.7634    2.8329 H   0  0  0  0  0  0  0  0  0  0  0  0
  -43.6108  161.2233    0.9426 H   0  0  0  0  0  0  0  0  0  0  0  0
  -36.9220  160.5650   -5.4400 H   0  0  0  0  0  0  0  0  0  0  0  0
  -36.8445  163.0636   -6.8821 H   0  0  0  0  0  0  0  0  0  0  0  0
  1  2  1  0
  2  3  1  0
  3  4  2  0
  3  5  1  0
  5  6  2  0
  6  7  1  0
  7  8  2  0
  8  9  1  0
  9 10  2  0
 10 11  1  0
 11 12  1  0
 12 13  2  0
 13 14  1  0
 14 15  2  0
 15 16  1  0
 16 17  1  0
 17 18  2  0
 18 19  1  0
 19 20  2  0
 20 21  1  0
 21 22  2  0
 22 23  1  0
 23 24  2  0
 16 25  2  0
 25 26  1  0
 26 27  1  0
 27 28  2  0
 10  5  1  0
 28 12  1  0
 27 15  1  0
 24 19  1  0
  1 29  1  0
  1 30  1  0
  1 31  1  0
  2 32  1  0
  6 33  1  0
  7 34  1  0
  8 35  1  0
  9 36  1  0
 13 37  1  0
 14 38  1  0
 17 39  1  0
 18 40  1  0
 20 41  1  0
 21 42  1  0
 22 43  1  0
 23 44  1  0
 26 45  1  0
 28 46  1  0
M  END
>  <meeko>  (7) 
{"is_sidechain": false}

>  <vina_affinity_kcal_mol>  (7) 
-9.03

>  <pose_rank>  (7) 
7

$$$$

     RDKit          3D

 46 49  0  0  0  0  0  0  0  0999 V2000
  -32.8310  164.1920  -11.3450 C   0  0  0  0  0  0  0  0  0  0  0  0
  -34.0750  164.6960  -10.8240 N   0  0  0  0  0  0  0  0  0  0  0  0
  -35.2640  164.0390  -11.0520 C   0  0  0  0  0  0  0  0  0  0  0  0
  -35.3760  163.0670  -11.7900 O   0  0  0  0  0  0  0  0  0  0  0  0
  -36.4620  164.5900  -10.3710 C   0  0  0  0  0  0  0  0  0  0  0  0
  -36.9140  165.8370  -10.8340 C   0  0  0  0  0  0  0  0  0  0  0  0
  -38.0300  166.4450  -10.2590 C   0  0  0  0  0  0  0  0  0  0  0  0
  -38.7050  165.8080   -9.2230 C   0  0  0  0  0  0  0  0  0  0  0  0
  -38.2750  164.5590   -8.7690 C   0  0  0  0  0  0  0  0  0  0  0  0
  -37.1570  163.9280   -9.3430 C   0  0  0  0  0  0  0  0  0  0  0  0
  -36.7340  162.3000   -8.7240 S   0  0  0  0  0  0  0  0  0  0  0  0
  -37.4200  162.4000   -7.0750 C   0  0  0  0  0  0  0  0  0  0  0  0
  -38.1260  161.3060   -6.5630 C   0  0  0  0  0  0  0  0  0  0  0  0
  -38.6800  161.3420   -5.2740 C   0  0  0  0  0  0  0  0  0  0  0  0
  -38.5220  162.5020   -4.4910 C   0  0  0  0  0  0  0  0  0  0  0  0
  -38.9100  162.9320   -3.1850 C   0  0  0  0  0  0  0  0  0  0  0  0
  -39.6610  162.1410   -2.2560 C   0  0  0  0  0  0  0  0  0  0  0  0
  -39.1640  161.6060   -1.1270 C   0  0  0  0  0  0  0  0  0  0  0  0
  -39.9450  160.7970   -0.1840 C   0  0  0  0  0  0  0  0  0  0  0  0
  -41.3350  160.7730   -0.2750 C   0  0  0  0  0  0  0  0  0  0  0  0
  -42.0550  159.9970    0.6310 C   0  0  0  0  0  0  0  0  0  0  0  0
  -41.3730  159.2710    1.5990 C   0  0  0  0  0  0  0  0  0  0  0  0
  -39.9910  159.3510    1.6190 C   0  0  0  0  0  0  0  0  0  0  0  0
  -39.2660  160.0940    0.7540 N   0  0  0  0  0  0  0  0  0  0  0  0
  -38.4820  164.1800   -2.9350 N   0  0  0  0  0  0  0  0  0  0  0  0
  -37.8330  164.5350   -4.0560 N   0  0  0  0  0  0  0  0  0  0  0  0
  -37.8240  163.5760   -5.0290 C   0  0  0  0  0  0  0  0  0  0  0  0
  -37.2680  163.5680   -6.3130 C   0  0  0  0  0  0  0  0  0  0  0  0
  -32.1664  163.9227  -10.5109 H   0  0  0  0  0  0  0  0  0  0  0  0
  -33.0254  163.3017  -11.9611 H   0  0  0  0  0  0  0  0  0  0  0  0
  -32.3509  164.9665  -11.9611 H   0  0  0  0  0  0  0  0  0  0  0  0
  -34.0410  165.3870  -10.0840 H   0  0  0  0  0  0  0  0  0  0  0  0
  -36.3833  166.3382  -11.6569 H   0  0  0  0  0  0  0  0  0  0  0  0
  -38.3748  167.4240  -10.6233 H   0  0  0  0  0  0  0  0  0  0  0  0
  -39.5794  166.2889   -8.7602 H   0  0  0  0  0  0  0  0  0  0  0  0
  -38.8182  164.0623   -7.9515 H   0  0  0  0  0  0  0  0  0  0  0  0
  -38.2488  160.4038   -7.1802 H   0  0  0  0  0  0  0  0  0  0  0  0
  -39.2307  160.4751   -4.8802 H   0  0  0  0  0  0  0  0  0  0  0  0
  -40.7217  161.9580   -2.4830 H   0  0  0  0  0  0  0  0  0  0  0  0
  -38.1039  161.7863   -0.8953 H   0  0  0  0  0  0  0  0  0  0  0  0
  -41.8551  161.3567   -1.0488 H   0  0  0  0  0  0  0  0  0  0  0  0
  -43.1532  159.9597    0.5801 H   0  0  0  0  0  0  0  0  0  0  0  0
  -41.9149  158.6508    2.3282 H   0  0  0  0  0  0  0  0  0  0  0  0
  -39.4508  158.7752    2.3849 H   0  0  0  0  0  0  0  0  0  0  0  0
  -37.4100  165.4550   -4.0940 H   0  0  0  0  0  0  0  0  0  0  0  0
  -36.7326  164.4433   -6.7094 H   0  0  0  0  0  0  0  0  0  0  0  0
  1  2  1  0
  2  3  1  0
  3  4  2  0
  3  5  1  0
  5  6  2  0
  6  7  1  0
  7  8  2  0
  8  9  1  0
  9 10  2  0
 10 11  1  0
 11 12  1  0
 12 13  2  0
 13 14  1  0
 14 15  2  0
 15 16  1  0
 16 17  1  0
 17 18  2  0
 18 19  1  0
 19 20  2  0
 20 21  1  0
 21 22  2  0
 22 23  1  0
 23 24  2  0
 16 25  2  0
 25 26  1  0
 26 27  1  0
 27 28  2  0
 10  5  1  0
 28 12  1  0
 27 15  1  0
 24 19  1  0
  1 29  1  0
  1 30  1  0
  1 31  1  0
  2 32  1  0
  6 33  1  0
  7 34  1  0
  8 35  1  0
  9 36  1  0
 13 37  1  0
 14 38  1  0
 17 39  1  0
 18 40  1  0
 20 41  1  0
 21 42  1  0
 22 43  1  0
 23 44  1  0
 26 45  1  0
 28 46  1  0
M  END
>  <meeko>  (8) 
{"is_sidechain": false}

>  <vina_affinity_kcal_mol>  (8) 
-8.962

>  <pose_rank>  (8) 
8

$$$$

     RDKit          3D

 46 49  0  0  0  0  0  0  0  0999 V2000
  -34.3700  148.7380    2.1010 C   0  0  0  0  0  0  0  0  0  0  0  0
  -35.5580  149.1270    2.8160 N   0  0  0  0  0  0  0  0  0  0  0  0
  -35.6450  148.9900    4.1840 C   0  0  0  0  0  0  0  0  0  0  0  0
  -34.7940  148.4360    4.8700 O   0  0  0  0  0  0  0  0  0  0  0  0
  -36.8720  149.5290    4.8230 C   0  0  0  0  0  0  0  0  0  0  0  0
  -38.0590  148.8160    4.5740 C   0  0  0  0  0  0  0  0  0  0  0  0
  -39.2680  149.2410    5.1240 C   0  0  0  0  0  0  0  0  0  0  0  0
  -39.3000  150.3740    5.9300 C   0  0  0  0  0  0  0  0  0  0  0  0
  -38.1230  151.0770    6.1970 C   0  0  0  0  0  0  0  0  0  0  0  0
  -36.8940  150.6590    5.6590 C   0  0  0  0  0  0  0  0  0  0  0  0
  -35.4390  151.5990    6.1210 S   0  0  0  0  0  0  0  0  0  0  0  0
  -35.9110  153.2210    5.5330 C   0  0  0  0  0  0  0  0  0  0  0  0
  -37.2060  153.4200    5.0450 C   0  0  0  0  0  0  0  0  0  0  0  0
  -37.6180  154.6760    4.5740 C   0  0  0  0  0  0  0  0  0  0  0  0
  -36.7060  155.7490    4.5950 C   0  0  0  0  0  0  0  0  0  0  0  0
  -36.7210  157.1290    4.2270 C   0  0  0  0  0  0  0  0  0  0  0  0
  -37.8520  157.8130    3.6710 C   0  0  0  0  0  0  0  0  0  0  0  0
  -38.1230  157.9050    2.3580 C   0  0  0  0  0  0  0  0  0  0  0  0
  -39.2850  158.6090    1.8040 C   0  0  0  0  0  0  0  0  0  0  0  0
  -40.5350  158.4630    2.3990 C   0  0  0  0  0  0  0  0  0  0  0  0
  -41.6240  159.1420    1.8550 C   0  0  0  0  0  0  0  0  0  0  0  0
  -41.4360  159.9430    0.7360 C   0  0  0  0  0  0  0  0  0  0  0  0
  -40.1610  160.0320    0.2060 C   0  0  0  0  0  0  0  0  0  0  0  0
  -39.0870  159.3870    0.7120 N   0  0  0  0  0  0  0  0  0  0  0  0
  -35.5340  157.7110    4.4660 N   0  0  0  0  0  0  0  0  0  0  0  0
  -34.7820  156.7240    4.9770 N   0  0  0  0  0  0  0  0  0  0  0  0
  -35.4230  155.5210    5.0770 C   0  0  0  0  0  0  0  0  0  0  0  0
  -34.9860  154.2770    5.5450 C   0  0  0  0  0  0  0  0  0  0  0  0
  -33.5782  148.4787    2.8192 H   0  0  0  0  0  0  0  0  0  0  0  0
  -34.5917  147.8655    1.4688 H   0  0  0  0  0  0  0  0  0  0  0  0
  -34.0327  149.5726    1.4688 H   0  0  0  0  0  0  0  0  0  0  0  0
  -36.2230  149.7310    2.3490 H   0  0  0  0  0  0  0  0  0  0  0  0
  -38.0333  147.9168    3.9409 H   0  0  0  0  0  0  0  0  0  0  0  0
  -40.1933  148.6819    4.9210 H   0  0  0  0  0  0  0  0  0  0  0  0
  -40.2536  150.7169    6.3578 H   0  0  0  0  0  0  0  0  0  0  0  0
  -38.1586  151.9706    6.8375 H   0  0  0  0  0  0  0  0  0  0  0  0
  -37.9137  152.5780    5.0300 H   0  0  0  0  0  0  0  0  0  0  0  0
  -38.6399  154.8206    4.1934 H   0  0  0  0  0  0  0  0  0  0  0  0
  -38.5488  158.2979    4.3705 H   0  0  0  0  0  0  0  0  0  0  0  0
  -37.4296  157.4218    1.6539 H   0  0  0  0  0  0  0  0  0  0  0  0
  -40.6613  157.8222    3.2841 H   0  0  0  0  0  0  0  0  0  0  0  0
  -42.6220  159.0445    2.3072 H   0  0  0  0  0  0  0  0  0  0  0  0
  -42.2763  160.4906    0.2843 H   0  0  0  0  0  0  0  0  0  0  0  0
  -40.0128  160.6660   -0.6806 H   0  0  0  0  0  0  0  0  0  0  0  0
  -33.8290  156.9370    5.2450 H   0  0  0  0  0  0  0  0  0  0  0  0
  -33.9578  154.1320    5.9082 H   0  0  0  0  0  0  0  0  0  0  0  0
  1  2  1  0
  2  3  1  0
  3  4  2  0
  3  5  1  0
  5  6  2  0
  6  7  1  0
  7  8  2  0
  8  9  1  0
  9 10  2  0
 10 11  1  0
 11 12  1  0
 12 13  2  0
 13 14  1  0
 14 15  2  0
 15 16  1  0
 16 17  1  0
 17 18  2  0
 18 19  1  0
 19 20  2  0
 20 21  1  0
 21 22  2  0
 22 23  1  0
 23 24  2  0
 16 25  2  0
 25 26  1  0
 26 27  1  0
 27 28  2  0
 10  5  1  0
 28 12  1  0
 27 15  1  0
 24 19  1  0
  1 29  1  0
  1 30  1  0
  1 31  1  0
  2 32  1  0
  6 33  1  0
  7 34  1  0
  8 35  1  0
  9 36  1  0
 13 37  1  0
 14 38  1  0
 17 39  1  0
 18 40  1  0
 20 41  1  0
 21 42  1  0
 22 43  1  0
 23 44  1  0
 26 45  1  0
 28 46  1  0
M  END
>  <meeko>  (9) 
{"is_sidechain": false}

>  <vina_affinity_kcal_mol>  (9) 
-8.835

>  <pose_rank>  (9) 
9

$$$$

     RDKit          3D

 46 49  0  0  0  0  0  0  0  0999 V2000
  -33.4870  148.7470   10.6300 C   0  0  0  0  0  0  0  0  0  0  0  0
  -33.7310  149.0450    9.2430 N   0  0  0  0  0  0  0  0  0  0  0  0
  -34.9810  148.8900    8.6880 C   0  0  0  0  0  0  0  0  0  0  0  0
  -35.9330  148.3910    9.2780 O   0  0  0  0  0  0  0  0  0  0  0  0
  -35.1380  149.3370    7.2810 C   0  0  0  0  0  0  0  0  0  0  0  0
  -35.0810  148.3260    6.3050 C   0  0  0  0  0  0  0  0  0  0  0  0
  -35.2130  148.6390    4.9530 C   0  0  0  0  0  0  0  0  0  0  0  0
  -35.4080  149.9610    4.5660 C   0  0  0  0  0  0  0  0  0  0  0  0
  -35.4850  150.9690    5.5300 C   0  0  0  0  0  0  0  0  0  0  0  0
  -35.3630  150.6710    6.8980 C   0  0  0  0  0  0  0  0  0  0  0  0
  -35.5420  152.0340    8.0490 S   0  0  0  0  0  0  0  0  0  0  0  0
  -35.9900  153.3460    6.9170 C   0  0  0  0  0  0  0  0  0  0  0  0
  -37.3370  153.5360    6.5930 C   0  0  0  0  0  0  0  0  0  0  0  0
  -37.7310  154.5530    5.7100 C   0  0  0  0  0  0  0  0  0  0  0  0
  -36.7500  155.3900    5.1440 C   0  0  0  0  0  0  0  0  0  0  0  0
  -36.7270  156.4970    4.2410 C   0  0  0  0  0  0  0  0  0  0  0  0
  -37.8870  157.0750    3.6300 C   0  0  0  0  0  0  0  0  0  0  0  0
  -37.8730  157.8240    2.5130 C   0  0  0  0  0  0  0  0  0  0  0  0
  -39.0690  158.4100    1.8980 C   0  0  0  0  0  0  0  0  0  0  0  0
  -40.2860  158.3720    2.5740 C   0  0  0  0  0  0  0  0  0  0  0  0
  -41.4090  158.9360    1.9690 C   0  0  0  0  0  0  0  0  0  0  0  0
  -41.2870  159.5160    0.7140 C   0  0  0  0  0  0  0  0  0  0  0  0
  -40.0400  159.5100    0.1120 C   0  0  0  0  0  0  0  0  0  0  0  0
  -38.9340  158.9730    0.6730 N   0  0  0  0  0  0  0  0  0  0  0  0
  -35.4730  156.9320    4.0350 N   0  0  0  0  0  0  0  0  0  0  0  0
  -34.7160  156.1210    4.7910 N   0  0  0  0  0  0  0  0  0  0  0  0
  -35.4190  155.1720    5.4780 C   0  0  0  0  0  0  0  0  0  0  0  0
  -34.9990  154.1610    6.3490 C   0  0  0  0  0  0  0  0  0  0  0  0
  -34.0579  149.4443   11.2608 H   0  0  0  0  0  0  0  0  0  0  0  0
  -33.8032  147.7155   10.8446 H   0  0  0  0  0  0  0  0  0  0  0  0
  -32.4134  148.8535   10.8446 H   0  0  0  0  0  0  0  0  0  0  0  0
  -33.0490  149.6060    8.7460 H   0  0  0  0  0  0  0  0  0  0  0  0
  -34.9311  147.2801    6.6109 H   0  0  0  0  0  0  0  0  0  0  0  0
  -35.1632  147.8436    4.1949 H   0  0  0  0  0  0  0  0  0  0  0  0
  -35.5017  150.2129    3.4993 H   0  0  0  0  0  0  0  0  0  0  0  0
  -35.6434  152.0106    5.2139 H   0  0  0  0  0  0  0  0  0  0  0  0
  -38.0990  152.8785    7.0369 H   0  0  0  0  0  0  0  0  0  0  0  0
  -38.7935  154.6947    5.4629 H   0  0  0  0  0  0  0  0  0  0  0  0
  -38.8601  156.8928    4.1095 H   0  0  0  0  0  0  0  0  0  0  0  0
  -36.9024  158.0091    2.0295 H   0  0  0  0  0  0  0  0  0  0  0  0
  -40.3602  157.9055    3.5674 H   0  0  0  0  0  0  0  0  0  0  0  0
  -42.3821  158.9213    2.4816 H   0  0  0  0  0  0  0  0  0  0  0  0
  -42.1556  159.9673    0.2122 H   0  0  0  0  0  0  0  0  0  0  0  0
  -39.9439  159.9699   -0.8826 H   0  0  0  0  0  0  0  0  0  0  0  0
  -33.7140  156.2700    4.7980 H   0  0  0  0  0  0  0  0  0  0  0  0
  -33.9339  154.0109    6.5795 H   0  0  0  0  0  0  0  0  0  0  0  0
  1  2  1  0
  2  3  1  0
  3  4  2  0
  3  5  1  0
  5  6  2  0
  6  7  1  0
  7  8  2  0
  8  9  1  0
  9 10  2  0
 10 11  1  0
 11 12  1  0
 12 13  2  0
 13 14  1  0
 14 15  2  0
 15 16  1  0
 16 17  1  0
 17 18  2  0
 18 19  1  0
 19 20  2  0
 20 21  1  0
 21 22  2  0
 22 23  1  0
 23 24  2  0
 16 25  2  0
 25 26  1  0
 26 27  1  0
 27 28  2  0
 10  5  1  0
 28 12  1  0
 27 15  1  0
 24 19  1  0
  1 29  1  0
  1 30  1  0
  1 31  1  0
  2 32  1  0
  6 33  1  0
  7 34  1  0
  8 35  1  0
  9 36  1  0
 13 37  1  0
 14 38  1  0
 17 39  1  0
 18 40  1  0
 20 41  1  0
 21 42  1  0
 22 43  1  0
 23 44  1  0
 26 45  1  0
 28 46  1  0
M  END
>  <meeko>  (10) 
{"is_sidechain": false}

>  <vina_affinity_kcal_mol>  (10) 
-8.573

>  <pose_rank>  (10) 
10

$$$$
