
     RDKit          3D

 49 52  0  0  0  0  0  0  0  0999 V2000
   -7.7893   -0.3343   -0.4321 C   0  0  0  0  0  0  0  0  0  0  0  0
   -6.6097   -0.8932   -1.0140 O   0  0  0  0  0  0  0  0  0  0  0  0
   -5.4914   -0.2813   -0.5133 C   0  0  0  0  0  0  0  0  0  0  0  0
   -5.0974    0.9444   -1.0602 C   0  0  0  0  0  0  0  0  0  0  0  0
   -3.9345    1.5833   -0.6541 C   0  0  0  0  0  0  0  0  0  0  0  0
   -3.6192    2.7678   -1.2054 N   0  0  0  0  0  0  0  0  0  0  0  0
   -2.4946    3.3926   -0.7941 C   0  0  0  0  0  0  0  0  0  0  0  0
   -1.6369    2.8801    0.1543 C   0  0  0  0  0  0  0  0  0  0  0  0
   -1.9530    1.6400    0.6995 C   0  0  0  0  0  0  0  0  0  0  0  0
   -1.1487    1.0929    1.6772 O   0  0  0  0  0  0  0  0  0  0  0  0
    0.1555    0.8073    1.3379 C   0  0  0  0  0  0  0  0  0  0  0  0
    0.5445    0.3205    0.0888 C   0  0  0  0  0  0  0  0  0  0  0  0
    1.8889    0.0193   -0.1624 C   0  0  0  0  0  0  0  0  0  0  0  0
    2.8545    0.1834    0.8346 C   0  0  0  0  0  0  0  0  0  0  0  0
    4.2262   -0.0989    0.6372 N   0  0  0  0  0  0  0  0  0  0  0  0
    4.8210   -0.7026   -0.4503 C   0  0  0  0  0  0  0  0  0  0  0  0
    4.2454   -1.1711   -1.4241 O   0  0  0  0  0  0  0  0  0  0  0  0
    6.1986   -0.7404   -0.3007 N   0  0  0  0  0  0  0  0  0  0  0  0
    7.0470   -1.2798   -1.3199 C   0  0  0  0  0  0  0  0  0  0  0  0
    7.8274   -0.3701   -2.2276 C   0  0  0  0  0  0  0  0  0  0  0  0
    8.5438   -1.1909   -1.1958 C   0  0  0  0  0  0  0  0  0  0  0  0
    2.4426    0.6639    2.0923 C   0  0  0  0  0  0  0  0  0  0  0  0
    3.5852    0.8953    3.3742 Cl  0  0  0  0  0  0  0  0  0  0  0  0
    1.1029    0.9655    2.3467 C   0  0  0  0  0  0  0  0  0  0  0  0
   -3.1277    0.9627    0.3215 C   0  0  0  0  0  0  0  0  0  0  0  0
   -3.5131   -0.2853    0.8609 C   0  0  0  0  0  0  0  0  0  0  0  0
   -4.6900   -0.9117    0.4372 C   0  0  0  0  0  0  0  0  0  0  0  0
   -5.0769   -2.2115    1.0334 C   0  0  0  0  0  0  0  0  0  0  0  0
   -4.0835   -3.1488    1.1246 N   0  0  0  0  0  0  0  0  0  0  0  0
   -6.2087   -2.4402    1.4348 O   0  0  0  0  0  0  0  0  0  0  0  0
   -7.9883    0.6595   -0.8469 H   0  0  0  0  0  0  0  0  0  0  0  0
   -8.6304   -0.9845   -0.6903 H   0  0  0  0  0  0  0  0  0  0  0  0
   -7.7225   -0.2809    0.6603 H   0  0  0  0  0  0  0  0  0  0  0  0
   -5.7078    1.4093   -1.8307 H   0  0  0  0  0  0  0  0  0  0  0  0
   -2.3016    4.3527   -1.2651 H   0  0  0  0  0  0  0  0  0  0  0  0
   -0.7544    3.4296    0.4586 H   0  0  0  0  0  0  0  0  0  0  0  0
   -0.1816    0.1593   -0.7043 H   0  0  0  0  0  0  0  0  0  0  0  0
    2.1480   -0.3442   -1.1529 H   0  0  0  0  0  0  0  0  0  0  0  0
    4.8138    0.0354    1.4497 H   0  0  0  0  0  0  0  0  0  0  0  0
    6.6020   -0.0452    0.3109 H   0  0  0  0  0  0  0  0  0  0  0  0
    6.6545   -2.1945   -1.7618 H   0  0  0  0  0  0  0  0  0  0  0  0
    7.9185   -0.6614   -3.2680 H   0  0  0  0  0  0  0  0  0  0  0  0
    7.7557    0.6998   -2.0741 H   0  0  0  0  0  0  0  0  0  0  0  0
    8.9697   -0.6768   -0.3431 H   0  0  0  0  0  0  0  0  0  0  0  0
    9.1276   -2.0383   -1.5376 H   0  0  0  0  0  0  0  0  0  0  0  0
    0.7947    1.3255    3.3246 H   0  0  0  0  0  0  0  0  0  0  0  0
   -2.9009   -0.7569    1.6273 H   0  0  0  0  0  0  0  0  0  0  0  0
   -3.2303   -3.0714    0.5884 H   0  0  0  0  0  0  0  0  0  0  0  0
   -4.3755   -4.0758    1.4079 H   0  0  0  0  0  0  0  0  0  0  0  0
  1  2  1  0
  2  3  1  0
  3  4  1  0
  4  5  2  0
  5  6  1  0
  6  7  2  0
  7  8  1  0
  8  9  2  0
  9 10  1  0
 10 11  1  0
 11 12  1  0
 12 13  2  0
 13 14  1  0
 14 15  1  0
 15 16  1  0
 16 17  2  0
 16 18  1  0
 18 19  1  0
 19 20  1  0
 20 21  1  0
 14 22  2  0
 22 23  1  0
 22 24  1  0
  9 25  1  0
 25 26  2  0
 26 27  1  0
 27 28  1  0
 28 29  1  0
 28 30  2  0
 27  3  2  0
 25  5  1  0
 24 11  2  0
 21 19  1  0
  1 31  1  0
  1 32  1  0
  1 33  1  0
  4 34  1  0
  7 35  1  0
  8 36  1  0
 12 37  1  0
 13 38  1  0
 15 39  1  0
 18 40  1  0
 19 41  1  0
 20 42  1  0
 20 43  1  0
 21 44  1  0
 21 45  1  0
 24 46  1  0
 26 47  1  0
 29 48  1  0
 29 49  1  0
M  END
$$$$
