
     RDKit          3D

 49 52  0  0  0  0  0  0  0  0999 V2000
  -38.0830  165.7650   -8.0680 C   0  0  0  0  0  0  0  0  0  0  0  0
  -37.2210  164.6750   -7.7350 O   0  0  0  0  0  0  0  0  0  0  0  0
  -37.7290  163.9670   -6.6770 C   0  0  0  0  0  0  0  0  0  0  0  0
  -37.8780  164.6160   -5.4480 C   0  0  0  0  0  0  0  0  0  0  0  0
  -38.3150  163.9420   -4.3170 C   0  0  0  0  0  0  0  0  0  0  0  0
  -38.4550  164.6260   -3.1680 N   0  0  0  0  0  0  0  0  0  0  0  0
  -38.8960  163.9680   -2.0740 C   0  0  0  0  0  0  0  0  0  0  0  0
  -39.2010  162.6240   -2.0600 C   0  0  0  0  0  0  0  0  0  0  0  0
  -39.0260  161.9160   -3.2440 C   0  0  0  0  0  0  0  0  0  0  0  0
  -39.3480  160.5760   -3.2990 O   0  0  0  0  0  0  0  0  0  0  0  0
  -39.1860  159.8380   -2.1460 C   0  0  0  0  0  0  0  0  0  0  0  0
  -38.1760  158.8920   -1.9650 C   0  0  0  0  0  0  0  0  0  0  0  0
  -38.1050  158.1560   -0.7760 C   0  0  0  0  0  0  0  0  0  0  0  0
  -39.0500  158.3450    0.2360 C   0  0  0  0  0  0  0  0  0  0  0  0
  -39.0240  157.6360    1.4600 N   0  0  0  0  0  0  0  0  0  0  0  0
  -38.0680  157.6880    2.4520 C   0  0  0  0  0  0  0  0  0  0  0  0
  -37.0200  158.3200    2.4160 O   0  0  0  0  0  0  0  0  0  0  0  0
  -38.4330  156.8980    3.5310 N   0  0  0  0  0  0  0  0  0  0  0  0
  -37.6240  156.8210    4.7090 C   0  0  0  0  0  0  0  0  0  0  0  0
  -37.7780  155.6740    5.6690 C   0  0  0  0  0  0  0  0  0  0  0  0
  -36.5400  155.7830    4.8260 C   0  0  0  0  0  0  0  0  0  0  0  0
  -40.0680  159.2950    0.0330 C   0  0  0  0  0  0  0  0  0  0  0  0
  -41.2710  159.5840    1.2450 Cl  0  0  0  0  0  0  0  0  0  0  0  0
  -40.1430  160.0300   -1.1530 C   0  0  0  0  0  0  0  0  0  0  0  0
  -38.5950  162.5640   -4.4170 C   0  0  0  0  0  0  0  0  0  0  0  0
  -38.4250  161.9010   -5.6530 C   0  0  0  0  0  0  0  0  0  0  0  0
  -37.9830  162.6010   -6.7820 C   0  0  0  0  0  0  0  0  0  0  0  0
  -37.8310  161.8830   -8.0690 C   0  0  0  0  0  0  0  0  0  0  0  0
  -38.5080  162.4130   -9.1340 N   0  0  0  0  0  0  0  0  0  0  0  0
  -37.1330  160.8860   -8.1870 O   0  0  0  0  0  0  0  0  0  0  0  0
  -38.4541  166.2342   -7.1449 H   0  0  0  0  0  0  0  0  0  0  0  0
  -37.5248  166.5070   -8.6577 H   0  0  0  0  0  0  0  0  0  0  0  0
  -38.9337  165.3928   -8.6577 H   0  0  0  0  0  0  0  0  0  0  0  0
  -37.6428  165.6881   -5.3758 H   0  0  0  0  0  0  0  0  0  0  0  0
  -39.0188  164.5373   -1.1408 H   0  0  0  0  0  0  0  0  0  0  0  0
  -39.5684  162.1307   -1.1480 H   0  0  0  0  0  0  0  0  0  0  0  0
  -37.4334  158.7241   -2.7589 H   0  0  0  0  0  0  0  0  0  0  0  0
  -37.2976  157.4220   -0.6371 H   0  0  0  0  0  0  0  0  0  0  0  0
  -39.7180  156.9050    1.5470 H   0  0  0  0  0  0  0  0  0  0  0  0
  -39.4210  156.7170    3.6400 H   0  0  0  0  0  0  0  0  0  0  0  0
  -37.6650  157.9170    4.7928 H   0  0  0  0  0  0  0  0  0  0  0  0
  -37.7225  155.8531    6.7529 H   0  0  0  0  0  0  0  0  0  0  0  0
  -38.5386  154.8971    5.8359 H   0  0  0  0  0  0  0  0  0  0  0  0
  -35.5781  156.0424    5.2924 H   0  0  0  0  0  0  0  0  0  0  0  0
  -36.0188  155.1197    4.1200 H   0  0  0  0  0  0  0  0  0  0  0  0
  -40.9548  160.7573   -1.3016 H   0  0  0  0  0  0  0  0  0  0  0  0
  -38.6419  160.8253   -5.7289 H   0  0  0  0  0  0  0  0  0  0  0  0
  -39.2650  163.0710   -9.0070 H   0  0  0  0  0  0  0  0  0  0  0  0
  -38.5110  161.8520   -9.9780 H   0  0  0  0  0  0  0  0  0  0  0  0
  1  2  1  0
  2  3  1  0
  3  4  1  0
  4  5  2  0
  5  6  1  0
  6  7  2  0
  7  8  1  0
  8  9  2  0
  9 10  1  0
 10 11  1  0
 11 12  1  0
 12 13  2  0
 13 14  1  0
 14 15  1  0
 15 16  1  0
 16 17  2  0
 16 18  1  0
 18 19  1  0
 19 20  1  0
 20 21  1  0
 14 22  2  0
 22 23  1  0
 22 24  1  0
  9 25  1  0
 25 26  2  0
 26 27  1  0
 27 28  1  0
 28 29  1  0
 28 30  2  0
 27  3  2  0
 25  5  1  0
 24 11  2  0
 21 19  1  0
  1 31  1  0
  1 32  1  0
  1 33  1  0
  4 34  1  0
  7 35  1  0
  8 36  1  0
 12 37  1  0
 13 38  1  0
 15 39  1  0
 18 40  1  0
 19 41  1  0
 20 42  1  0
 20 43  1  0
 21 44  1  0
 21 45  1  0
 24 46  1  0
 26 47  1  0
 29 48  1  0
 29 49  1  0
M  END
>  <meeko>  (1) 
{"is_sidechain": false}

>  <vina_affinity_kcal_mol>  (1) 
-10.123

>  <pose_rank>  (1) 
1

$$$$

     RDKit          3D

 49 52  0  0  0  0  0  0  0  0999 V2000
  -38.2240  165.8290   -9.5750 C   0  0  0  0  0  0  0  0  0  0  0  0
  -37.4230  164.6970   -9.2340 O   0  0  0  0  0  0  0  0  0  0  0  0
  -37.8410  164.1530   -8.0480 C   0  0  0  0  0  0  0  0  0  0  0  0
  -38.0050  164.9970   -6.9460 C   0  0  0  0  0  0  0  0  0  0  0  0
  -38.3530  164.5060   -5.6970 C   0  0  0  0  0  0  0  0  0  0  0  0
  -38.5140  165.3700   -4.6800 N   0  0  0  0  0  0  0  0  0  0  0  0
  -38.8690  164.8870   -3.4700 C   0  0  0  0  0  0  0  0  0  0  0  0
  -39.0640  163.5490   -3.2080 C   0  0  0  0  0  0  0  0  0  0  0  0
  -38.8670  162.6560   -4.2550 C   0  0  0  0  0  0  0  0  0  0  0  0
  -39.0810  161.3080   -4.0600 O   0  0  0  0  0  0  0  0  0  0  0  0
  -38.9950  160.8330   -2.7690 C   0  0  0  0  0  0  0  0  0  0  0  0
  -37.8820  160.1620   -2.2610 C   0  0  0  0  0  0  0  0  0  0  0  0
  -37.8910  159.6780   -0.9470 C   0  0  0  0  0  0  0  0  0  0  0  0
  -39.0150  159.8420   -0.1350 C   0  0  0  0  0  0  0  0  0  0  0  0
  -39.0790  159.3800    1.2010 N   0  0  0  0  0  0  0  0  0  0  0  0
  -38.3520  158.3640    1.7840 C   0  0  0  0  0  0  0  0  0  0  0  0
  -37.5560  157.6250    1.2170 O   0  0  0  0  0  0  0  0  0  0  0  0
  -38.6490  158.2560    3.1340 N   0  0  0  0  0  0  0  0  0  0  0  0
  -37.9890  157.3000    3.9710 C   0  0  0  0  0  0  0  0  0  0  0  0
  -36.4880  157.2530    4.0410 C   0  0  0  0  0  0  0  0  0  0  0  0
  -37.2770  157.7410    5.2210 C   0  0  0  0  0  0  0  0  0  0  0  0
  -40.1330  160.5110   -0.6660 C   0  0  0  0  0  0  0  0  0  0  0  0
  -41.5610  160.7540    0.2840 Cl  0  0  0  0  0  0  0  0  0  0  0  0
  -40.1290  160.9950   -1.9770 C   0  0  0  0  0  0  0  0  0  0  0  0
  -38.5230  163.1150   -5.5410 C   0  0  0  0  0  0  0  0  0  0  0  0
  -38.3370  162.2570   -6.6480 C   0  0  0  0  0  0  0  0  0  0  0  0
  -37.9860  162.7750   -7.9000 C   0  0  0  0  0  0  0  0  0  0  0  0
  -37.8140  161.8520   -9.0470 C   0  0  0  0  0  0  0  0  0  0  0  0
  -38.6030  162.0990  -10.1380 N   0  0  0  0  0  0  0  0  0  0  0  0
  -37.0100  160.9320   -9.0350 O   0  0  0  0  0  0  0  0  0  0  0  0
  -38.5727  166.3218   -8.6555 H   0  0  0  0  0  0  0  0  0  0  0  0
  -37.6250  166.5374  -10.1661 H   0  0  0  0  0  0  0  0  0  0  0  0
  -39.0913  165.4998  -10.1661 H   0  0  0  0  0  0  0  0  0  0  0  0
  -37.8540  166.0792   -7.0730 H   0  0  0  0  0  0  0  0  0  0  0  0
  -39.0105  165.6028   -2.6468 H   0  0  0  0  0  0  0  0  0  0  0  0
  -39.3641  163.2004   -2.2088 H   0  0  0  0  0  0  0  0  0  0  0  0
  -36.9951  160.0128   -2.8944 H   0  0  0  0  0  0  0  0  0  0  0  0
  -37.0034  159.1633   -0.5504 H   0  0  0  0  0  0  0  0  0  0  0  0
  -39.8460  159.7490    1.7480 H   0  0  0  0  0  0  0  0  0  0  0  0
  -39.0090  159.0870    3.5810 H   0  0  0  0  0  0  0  0  0  0  0  0
  -38.7808  156.5717    3.7416 H   0  0  0  0  0  0  0  0  0  0  0  0
  -35.9700  156.2838    4.0889 H   0  0  0  0  0  0  0  0  0  0  0  0
  -35.6684  157.6614    3.4315 H   0  0  0  0  0  0  0  0  0  0  0  0
  -37.3374  157.1292    6.1332 H   0  0  0  0  0  0  0  0  0  0  0  0
  -37.2751  158.6545    5.8337 H   0  0  0  0  0  0  0  0  0  0  0  0
  -41.0176  161.5017   -2.3816 H   0  0  0  0  0  0  0  0  0  0  0  0
  -38.4693  161.1720   -6.5248 H   0  0  0  0  0  0  0  0  0  0  0  0
  -39.4260  162.6840  -10.0760 H   0  0  0  0  0  0  0  0  0  0  0  0
  -38.5820  161.3950  -10.8660 H   0  0  0  0  0  0  0  0  0  0  0  0
  1  2  1  0
  2  3  1  0
  3  4  1  0
  4  5  2  0
  5  6  1  0
  6  7  2  0
  7  8  1  0
  8  9  2  0
  9 10  1  0
 10 11  1  0
 11 12  1  0
 12 13  2  0
 13 14  1  0
 14 15  1  0
 15 16  1  0
 16 17  2  0
 16 18  1  0
 18 19  1  0
 19 20  1  0
 20 21  1  0
 14 22  2  0
 22 23  1  0
 22 24  1  0
  9 25  1  0
 25 26  2  0
 26 27  1  0
 27 28  1  0
 28 29  1  0
 28 30  2  0
 27  3  2  0
 25  5  1  0
 24 11  2  0
 21 19  1  0
  1 31  1  0
  1 32  1  0
  1 33  1  0
  4 34  1  0
  7 35  1  0
  8 36  1  0
 12 37  1  0
 13 38  1  0
 15 39  1  0
 18 40  1  0
 19 41  1  0
 20 42  1  0
 20 43  1  0
 21 44  1  0
 21 45  1  0
 24 46  1  0
 26 47  1  0
 29 48  1  0
 29 49  1  0
M  END
>  <meeko>  (2) 
{"is_sidechain": false}

>  <vina_affinity_kcal_mol>  (2) 
-9.26

>  <pose_rank>  (2) 
2

$$$$

     RDKit          3D

 49 52  0  0  0  0  0  0  0  0999 V2000
  -34.4310  152.0130    5.5590 C   0  0  0  0  0  0  0  0  0  0  0  0
  -35.5520  152.5530    6.2610 O   0  0  0  0  0  0  0  0  0  0  0  0
  -36.0430  153.6530    5.6080 C   0  0  0  0  0  0  0  0  0  0  0  0
  -35.3060  154.8400    5.6510 C   0  0  0  0  0  0  0  0  0  0  0  0
  -35.7780  156.0110    5.0760 C   0  0  0  0  0  0  0  0  0  0  0  0
  -35.0150  157.1170    5.1350 N   0  0  0  0  0  0  0  0  0  0  0  0
  -35.4720  158.2500    4.5600 C   0  0  0  0  0  0  0  0  0  0  0  0
  -36.6900  158.3470    3.9230 C   0  0  0  0  0  0  0  0  0  0  0  0
  -37.4880  157.2080    3.8910 C   0  0  0  0  0  0  0  0  0  0  0  0
  -38.7020  157.2370    3.2380 O   0  0  0  0  0  0  0  0  0  0  0  0
  -38.8700  158.1890    2.2550 C   0  0  0  0  0  0  0  0  0  0  0  0
  -39.5440  159.3960    2.4510 C   0  0  0  0  0  0  0  0  0  0  0  0
  -39.7050  160.2930    1.3880 C   0  0  0  0  0  0  0  0  0  0  0  0
  -39.2100  159.9880    0.1170 C   0  0  0  0  0  0  0  0  0  0  0  0
  -39.3370  160.8580   -0.9910 N   0  0  0  0  0  0  0  0  0  0  0  0
  -38.9600  162.1810   -1.0800 C   0  0  0  0  0  0  0  0  0  0  0  0
  -38.5020  162.8660   -0.1750 O   0  0  0  0  0  0  0  0  0  0  0  0
  -39.1850  162.6730   -2.3570 N   0  0  0  0  0  0  0  0  0  0  0  0
  -38.8330  164.0140   -2.7140 C   0  0  0  0  0  0  0  0  0  0  0  0
  -37.8920  164.2800   -3.8560 C   0  0  0  0  0  0  0  0  0  0  0  0
  -39.3470  164.6260   -3.9890 C   0  0  0  0  0  0  0  0  0  0  0  0
  -38.5430  158.7620   -0.0650 C   0  0  0  0  0  0  0  0  0  0  0  0
  -37.9010  158.3190   -1.6120 Cl  0  0  0  0  0  0  0  0  0  0  0  0
  -38.3820  157.8640    0.9920 C   0  0  0  0  0  0  0  0  0  0  0  0
  -37.0420  155.9970    4.4530 C   0  0  0  0  0  0  0  0  0  0  0  0
  -37.7980  154.8040    4.4270 C   0  0  0  0  0  0  0  0  0  0  0  0
  -37.3030  153.6330    5.0130 C   0  0  0  0  0  0  0  0  0  0  0  0
  -38.1100  152.3930    4.9540 C   0  0  0  0  0  0  0  0  0  0  0  0
  -38.3200  151.7570    6.1490 N   0  0  0  0  0  0  0  0  0  0  0  0
  -38.5780  151.9610    3.9100 O   0  0  0  0  0  0  0  0  0  0  0  0
  -33.6842  151.6533    6.2821 H   0  0  0  0  0  0  0  0  0  0  0  0
  -34.7626  151.1758    4.9272 H   0  0  0  0  0  0  0  0  0  0  0  0
  -33.9831  152.7941    4.9272 H   0  0  0  0  0  0  0  0  0  0  0  0
  -34.3274  154.8457    6.1533 H   0  0  0  0  0  0  0  0  0  0  0  0
  -34.8359  159.1464    4.6025 H   0  0  0  0  0  0  0  0  0  0  0  0
  -37.0184  159.2882    3.4580 H   0  0  0  0  0  0  0  0  0  0  0  0
  -39.9496  159.6429    3.4432 H   0  0  0  0  0  0  0  0  0  0  0  0
  -40.2262  161.2472    1.5549 H   0  0  0  0  0  0  0  0  0  0  0  0
  -39.8950  160.5010   -1.7560 H   0  0  0  0  0  0  0  0  0  0  0  0
  -39.2110  161.9910   -3.1010 H   0  0  0  0  0  0  0  0  0  0  0  0
  -38.8631  164.2908   -1.6498 H   0  0  0  0  0  0  0  0  0  0  0  0
  -37.1418  165.0804   -3.7751 H   0  0  0  0  0  0  0  0  0  0  0  0
  -37.1816  163.6721   -4.4354 H   0  0  0  0  0  0  0  0  0  0  0  0
  -39.6625  165.6797   -4.0051 H   0  0  0  0  0  0  0  0  0  0  0  0
  -40.1434  164.3765   -4.7056 H   0  0  0  0  0  0  0  0  0  0  0  0
  -37.8716  156.9035    0.8276 H   0  0  0  0  0  0  0  0  0  0  0  0
  -38.7851  154.7951    3.9416 H   0  0  0  0  0  0  0  0  0  0  0  0
  -37.7520  151.9550    6.9610 H   0  0  0  0  0  0  0  0  0  0  0  0
  -38.7560  150.8450    6.0920 H   0  0  0  0  0  0  0  0  0  0  0  0
  1  2  1  0
  2  3  1  0
  3  4  1  0
  4  5  2  0
  5  6  1  0
  6  7  2  0
  7  8  1  0
  8  9  2  0
  9 10  1  0
 10 11  1  0
 11 12  1  0
 12 13  2  0
 13 14  1  0
 14 15  1  0
 15 16  1  0
 16 17  2  0
 16 18  1  0
 18 19  1  0
 19 20  1  0
 20 21  1  0
 14 22  2  0
 22 23  1  0
 22 24  1  0
  9 25  1  0
 25 26  2  0
 26 27  1  0
 27 28  1  0
 28 29  1  0
 28 30  2  0
 27  3  2  0
 25  5  1  0
 24 11  2  0
 21 19  1  0
  1 31  1  0
  1 32  1  0
  1 33  1  0
  4 34  1  0
  7 35  1  0
  8 36  1  0
 12 37  1  0
 13 38  1  0
 15 39  1  0
 18 40  1  0
 19 41  1  0
 20 42  1  0
 20 43  1  0
 21 44  1  0
 21 45  1  0
 24 46  1  0
 26 47  1  0
 29 48  1  0
 29 49  1  0
M  END
>  <meeko>  (3) 
{"is_sidechain": false}

>  <vina_affinity_kcal_mol>  (3) 
-8.991

>  <pose_rank>  (3) 
3

$$$$

     RDKit          3D

 49 52  0  0  0  0  0  0  0  0999 V2000
  -35.3420  152.1410    7.3180 C   0  0  0  0  0  0  0  0  0  0  0  0
  -35.4520  152.1640    5.8940 O   0  0  0  0  0  0  0  0  0  0  0  0
  -35.9620  153.3630    5.4710 C   0  0  0  0  0  0  0  0  0  0  0  0
  -35.1710  154.5090    5.5990 C   0  0  0  0  0  0  0  0  0  0  0  0
  -35.6500  155.7660    5.2610 C   0  0  0  0  0  0  0  0  0  0  0  0
  -34.8340  156.8270    5.3900 N   0  0  0  0  0  0  0  0  0  0  0  0
  -35.3010  158.0460    5.0440 C   0  0  0  0  0  0  0  0  0  0  0  0
  -36.5770  158.2740    4.5770 C   0  0  0  0  0  0  0  0  0  0  0  0
  -37.4260  157.1770    4.4750 C   0  0  0  0  0  0  0  0  0  0  0  0
  -38.7030  157.3390    3.9810 O   0  0  0  0  0  0  0  0  0  0  0  0
  -38.8330  157.9110    2.7340 C   0  0  0  0  0  0  0  0  0  0  0  0
  -37.8090  157.9470    1.7860 C   0  0  0  0  0  0  0  0  0  0  0  0
  -38.0110  158.5830    0.5550 C   0  0  0  0  0  0  0  0  0  0  0  0
  -39.2290  159.2040    0.2650 C   0  0  0  0  0  0  0  0  0  0  0  0
  -39.4920  159.8550   -0.9620 N   0  0  0  0  0  0  0  0  0  0  0  0
  -39.3240  161.1890   -1.2700 C   0  0  0  0  0  0  0  0  0  0  0  0
  -38.9750  162.0720   -0.4970 O   0  0  0  0  0  0  0  0  0  0  0  0
  -39.6270  161.4300   -2.6010 N   0  0  0  0  0  0  0  0  0  0  0  0
  -39.4880  162.7340   -3.1750 C   0  0  0  0  0  0  0  0  0  0  0  0
  -38.1620  163.1950   -3.7150 C   0  0  0  0  0  0  0  0  0  0  0  0
  -39.2920  162.9000   -4.6580 C   0  0  0  0  0  0  0  0  0  0  0  0
  -40.2470  159.1680    1.2370 C   0  0  0  0  0  0  0  0  0  0  0  0
  -41.7830  159.9130    0.9450 Cl  0  0  0  0  0  0  0  0  0  0  0  0
  -40.0490  158.5350    2.4660 C   0  0  0  0  0  0  0  0  0  0  0  0
  -36.9760  155.8820    4.7970 C   0  0  0  0  0  0  0  0  0  0  0  0
  -37.7850  154.7290    4.6870 C   0  0  0  0  0  0  0  0  0  0  0  0
  -37.2810  153.4700    5.0330 C   0  0  0  0  0  0  0  0  0  0  0  0
  -38.1470  152.2760    4.8910 C   0  0  0  0  0  0  0  0  0  0  0  0
  -38.4440  151.9000    3.6080 N   0  0  0  0  0  0  0  0  0  0  0  0
  -38.5650  151.6480    5.8530 O   0  0  0  0  0  0  0  0  0  0  0  0
  -36.3258  152.3467    7.7651 H   0  0  0  0  0  0  0  0  0  0  0  0
  -34.9915  151.1502    7.6427 H   0  0  0  0  0  0  0  0  0  0  0  0
  -34.6240  152.9085    7.6427 H   0  0  0  0  0  0  0  0  0  0  0  0
  -34.1428  154.4111    5.9774 H   0  0  0  0  0  0  0  0  0  0  0  0
  -34.6232  158.9070    5.1406 H   0  0  0  0  0  0  0  0  0  0  0  0
  -36.9111  159.2836    4.2959 H   0  0  0  0  0  0  0  0  0  0  0  0
  -36.8405  157.4744    2.0067 H   0  0  0  0  0  0  0  0  0  0  0  0
  -37.2030  158.5940   -0.1913 H   0  0  0  0  0  0  0  0  0  0  0  0
  -39.9910  159.3000   -1.6460 H   0  0  0  0  0  0  0  0  0  0  0  0
  -39.5500  160.6420   -3.2280 H   0  0  0  0  0  0  0  0  0  0  0  0
  -40.2047  163.1212   -2.4358 H   0  0  0  0  0  0  0  0  0  0  0  0
  -37.8350  164.2333   -3.5567 H   0  0  0  0  0  0  0  0  0  0  0  0
  -37.1214  162.8519   -3.6175 H   0  0  0  0  0  0  0  0  0  0  0  0
  -39.7929  163.7221   -5.1902 H   0  0  0  0  0  0  0  0  0  0  0  0
  -39.4221  162.2515   -5.5369 H   0  0  0  0  0  0  0  0  0  0  0  0
  -40.8504  158.5293    3.2195 H   0  0  0  0  0  0  0  0  0  0  0  0
  -38.8200  154.8216    4.3263 H   0  0  0  0  0  0  0  0  0  0  0  0
  -38.3180  152.5310    2.8290 H   0  0  0  0  0  0  0  0  0  0  0  0
  -39.1380  151.1690    3.5130 H   0  0  0  0  0  0  0  0  0  0  0  0
  1  2  1  0
  2  3  1  0
  3  4  1  0
  4  5  2  0
  5  6  1  0
  6  7  2  0
  7  8  1  0
  8  9  2  0
  9 10  1  0
 10 11  1  0
 11 12  1  0
 12 13  2  0
 13 14  1  0
 14 15  1  0
 15 16  1  0
 16 17  2  0
 16 18  1  0
 18 19  1  0
 19 20  1  0
 20 21  1  0
 14 22  2  0
 22 23  1  0
 22 24  1  0
  9 25  1  0
 25 26  2  0
 26 27  1  0
 27 28  1  0
 28 29  1  0
 28 30  2  0
 27  3  2  0
 25  5  1  0
 24 11  2  0
 21 19  1  0
  1 31  1  0
  1 32  1  0
  1 33  1  0
  4 34  1  0
  7 35  1  0
  8 36  1  0
 12 37  1  0
 13 38  1  0
 15 39  1  0
 18 40  1  0
 19 41  1  0
 20 42  1  0
 20 43  1  0
 21 44  1  0
 21 45  1  0
 24 46  1  0
 26 47  1  0
 29 48  1  0
 29 49  1  0
M  END
>  <meeko>  (4) 
{"is_sidechain": false}

>  <vina_affinity_kcal_mol>  (4) 
-8.744

>  <pose_rank>  (4) 
4

$$$$

     RDKit          3D

 49 52  0  0  0  0  0  0  0  0999 V2000
  -34.9540  165.7850  -11.7420 C   0  0  0  0  0  0  0  0  0  0  0  0
  -36.3570  165.5160  -11.7560 O   0  0  0  0  0  0  0  0  0  0  0  0
  -36.7320  164.8630  -10.6110 C   0  0  0  0  0  0  0  0  0  0  0  0
  -36.5120  163.4850  -10.5250 C   0  0  0  0  0  0  0  0  0  0  0  0
  -36.9340  162.7470   -9.4290 C   0  0  0  0  0  0  0  0  0  0  0  0
  -36.6760  161.4280   -9.3960 N   0  0  0  0  0  0  0  0  0  0  0  0
  -37.0750  160.7180   -8.3190 C   0  0  0  0  0  0  0  0  0  0  0  0
  -37.7470  161.2650   -7.2480 C   0  0  0  0  0  0  0  0  0  0  0  0
  -38.0360  162.6240   -7.3000 C   0  0  0  0  0  0  0  0  0  0  0  0
  -38.6760  163.2330   -6.2410 O   0  0  0  0  0  0  0  0  0  0  0  0
  -38.7330  162.5390   -5.0510 C   0  0  0  0  0  0  0  0  0  0  0  0
  -38.9080  161.1580   -4.9650 C   0  0  0  0  0  0  0  0  0  0  0  0
  -38.9930  160.5340   -3.7140 C   0  0  0  0  0  0  0  0  0  0  0  0
  -38.9210  161.2850   -2.5380 C   0  0  0  0  0  0  0  0  0  0  0  0
  -38.9930  160.7100   -1.2480 N   0  0  0  0  0  0  0  0  0  0  0  0
  -40.0490  160.7430   -0.3610 C   0  0  0  0  0  0  0  0  0  0  0  0
  -41.1040  161.3460   -0.5130 O   0  0  0  0  0  0  0  0  0  0  0  0
  -39.7610  160.0030    0.7750 N   0  0  0  0  0  0  0  0  0  0  0  0
  -40.7190  159.8470    1.8280 C   0  0  0  0  0  0  0  0  0  0  0  0
  -41.9920  159.0810    1.5960 C   0  0  0  0  0  0  0  0  0  0  0  0
  -40.9250  158.5070    2.4820 C   0  0  0  0  0  0  0  0  0  0  0  0
  -38.7540  162.6790   -2.6430 C   0  0  0  0  0  0  0  0  0  0  0  0
  -38.6530  163.6720   -1.2270 Cl  0  0  0  0  0  0  0  0  0  0  0  0
  -38.6700  163.3040   -3.8890 C   0  0  0  0  0  0  0  0  0  0  0  0
  -37.6180  163.4110   -8.3890 C   0  0  0  0  0  0  0  0  0  0  0  0
  -37.8600  164.8000   -8.4840 C   0  0  0  0  0  0  0  0  0  0  0  0
  -37.4260  165.5250   -9.5990 C   0  0  0  0  0  0  0  0  0  0  0  0
  -37.6790  166.9830   -9.6620 C   0  0  0  0  0  0  0  0  0  0  0  0
  -37.1770  167.7240   -8.6260 N   0  0  0  0  0  0  0  0  0  0  0  0
  -38.2850  167.5060  -10.5870 O   0  0  0  0  0  0  0  0  0  0  0  0
  -34.6039  165.8521  -10.7014 H   0  0  0  0  0  0  0  0  0  0  0  0
  -34.4198  164.9729  -12.2569 H   0  0  0  0  0  0  0  0  0  0  0  0
  -34.7580  166.7371  -12.2569 H   0  0  0  0  0  0  0  0  0  0  0  0
  -35.9910  162.9730  -11.3475 H   0  0  0  0  0  0  0  0  0  0  0  0
  -36.8507  159.6414   -8.2954 H   0  0  0  0  0  0  0  0  0  0  0  0
  -38.0434  160.6504   -6.3852 H   0  0  0  0  0  0  0  0  0  0  0  0
  -38.9795  160.5566   -5.8832 H   0  0  0  0  0  0  0  0  0  0  0  0
  -39.1176  159.4426   -3.6568 H   0  0  0  0  0  0  0  0  0  0  0  0
  -38.1180  160.3550   -0.8860 H   0  0  0  0  0  0  0  0  0  0  0  0
  -39.0690  159.2740    0.6720 H   0  0  0  0  0  0  0  0  0  0  0  0
  -40.4727  160.8581    2.1845 H   0  0  0  0  0  0  0  0  0  0  0  0
  -42.9360  159.4384    2.0332 H   0  0  0  0  0  0  0  0  0  0  0  0
  -42.5363  158.7293    0.7071 H   0  0  0  0  0  0  0  0  0  0  0  0
  -41.0871  158.4443    3.5682 H   0  0  0  0  0  0  0  0  0  0  0  0
  -40.3639  157.5613    2.5110 H   0  0  0  0  0  0  0  0  0  0  0  0
  -38.5545  164.3961   -3.9524 H   0  0  0  0  0  0  0  0  0  0  0  0
  -38.3949  165.3163   -7.6732 H   0  0  0  0  0  0  0  0  0  0  0  0
  -36.8980  167.2950   -7.7540 H   0  0  0  0  0  0  0  0  0  0  0  0
  -37.4620  168.6960   -8.6010 H   0  0  0  0  0  0  0  0  0  0  0  0
  1  2  1  0
  2  3  1  0
  3  4  1  0
  4  5  2  0
  5  6  1  0
  6  7  2  0
  7  8  1  0
  8  9  2  0
  9 10  1  0
 10 11  1  0
 11 12  1  0
 12 13  2  0
 13 14  1  0
 14 15  1  0
 15 16  1  0
 16 17  2  0
 16 18  1  0
 18 19  1  0
 19 20  1  0
 20 21  1  0
 14 22  2  0
 22 23  1  0
 22 24  1  0
  9 25  1  0
 25 26  2  0
 26 27  1  0
 27 28  1  0
 28 29  1  0
 28 30  2  0
 27  3  2  0
 25  5  1  0
 24 11  2  0
 21 19  1  0
  1 31  1  0
  1 32  1  0
  1 33  1  0
  4 34  1  0
  7 35  1  0
  8 36  1  0
 12 37  1  0
 13 38  1  0
 15 39  1  0
 18 40  1  0
 19 41  1  0
 20 42  1  0
 20 43  1  0
 21 44  1  0
 21 45  1  0
 24 46  1  0
 26 47  1  0
 29 48  1  0
 29 49  1  0
M  END
>  <meeko>  (5) 
{"is_sidechain": false}

>  <vina_affinity_kcal_mol>  (5) 
-8.723

>  <pose_rank>  (5) 
5

$$$$

     RDKit          3D

 49 52  0  0  0  0  0  0  0  0999 V2000
  -37.9430  147.4760    4.1870 C   0  0  0  0  0  0  0  0  0  0  0  0
  -38.2230  147.8810    5.5280 O   0  0  0  0  0  0  0  0  0  0  0  0
  -37.7800  149.1590    5.7460 C   0  0  0  0  0  0  0  0  0  0  0  0
  -36.4020  149.3920    5.7820 C   0  0  0  0  0  0  0  0  0  0  0  0
  -35.8830  150.6450    6.0720 C   0  0  0  0  0  0  0  0  0  0  0  0
  -34.5480  150.8100    6.0740 N   0  0  0  0  0  0  0  0  0  0  0  0
  -34.0490  152.0360    6.3410 C   0  0  0  0  0  0  0  0  0  0  0  0
  -34.8290  153.1340    6.6270 C   0  0  0  0  0  0  0  0  0  0  0  0
  -36.2080  152.9510    6.6530 C   0  0  0  0  0  0  0  0  0  0  0  0
  -37.0400  154.0230    6.8990 O   0  0  0  0  0  0  0  0  0  0  0  0
  -37.2440  154.9170    5.8710 C   0  0  0  0  0  0  0  0  0  0  0  0
  -37.6320  154.5440    4.5830 C   0  0  0  0  0  0  0  0  0  0  0  0
  -37.7810  155.5130    3.5830 C   0  0  0  0  0  0  0  0  0  0  0  0
  -37.5280  156.8600    3.8540 C   0  0  0  0  0  0  0  0  0  0  0  0
  -37.6680  157.8820    2.8860 N   0  0  0  0  0  0  0  0  0  0  0  0
  -38.8270  158.3460    2.3020 C   0  0  0  0  0  0  0  0  0  0  0  0
  -39.9540  157.8980    2.4720 O   0  0  0  0  0  0  0  0  0  0  0  0
  -38.5600  159.4070    1.4500 N   0  0  0  0  0  0  0  0  0  0  0  0
  -39.6080  160.0910    0.7560 C   0  0  0  0  0  0  0  0  0  0  0  0
  -39.2880  161.1080   -0.3040 C   0  0  0  0  0  0  0  0  0  0  0  0
  -39.8920  159.7890   -0.6900 C   0  0  0  0  0  0  0  0  0  0  0  0
  -37.1270  157.2180    5.1550 C   0  0  0  0  0  0  0  0  0  0  0  0
  -36.7990  158.8690    5.5630 Cl  0  0  0  0  0  0  0  0  0  0  0  0
  -36.9760  156.2540    6.1540 C   0  0  0  0  0  0  0  0  0  0  0  0
  -36.7760  151.6980    6.3550 C   0  0  0  0  0  0  0  0  0  0  0  0
  -38.1690  151.4600    6.3390 C   0  0  0  0  0  0  0  0  0  0  0  0
  -38.6710  150.1880    6.0440 C   0  0  0  0  0  0  0  0  0  0  0  0
  -40.1370  149.9730    6.0190 C   0  0  0  0  0  0  0  0  0  0  0  0
  -40.7270  150.0080    4.7840 N   0  0  0  0  0  0  0  0  0  0  0  0
  -40.7880  149.7610    7.0320 O   0  0  0  0  0  0  0  0  0  0  0  0
  -37.3175  146.5712    4.2003 H   0  0  0  0  0  0  0  0  0  0  0  0
  -38.8867  147.2617    3.6641 H   0  0  0  0  0  0  0  0  0  0  0  0
  -37.4092  148.2832    3.6641 H   0  0  0  0  0  0  0  0  0  0  0  0
  -35.7121  148.5606    5.5751 H   0  0  0  0  0  0  0  0  0  0  0  0
  -32.9566  152.1649    6.3293 H   0  0  0  0  0  0  0  0  0  0  0  0
  -34.3793  154.1177    6.8272 H   0  0  0  0  0  0  0  0  0  0  0  0
  -37.8214  153.4852    4.3527 H   0  0  0  0  0  0  0  0  0  0  0  0
  -38.1002  155.2107    2.5747 H   0  0  0  0  0  0  0  0  0  0  0  0
  -36.8010  158.2110    2.4800 H   0  0  0  0  0  0  0  0  0  0  0  0
  -37.7150  159.9290    1.6360 H   0  0  0  0  0  0  0  0  0  0  0  0
  -40.2011  160.0928    1.6824 H   0  0  0  0  0  0  0  0  0  0  0  0
  -39.8845  162.0291   -0.3801 H   0  0  0  0  0  0  0  0  0  0  0  0
  -38.3873  161.6665   -0.5987 H   0  0  0  0  0  0  0  0  0  0  0  0
  -40.9309  159.7438   -1.0486 H   0  0  0  0  0  0  0  0  0  0  0  0
  -39.6171  158.9812   -1.3842 H   0  0  0  0  0  0  0  0  0  0  0  0
  -36.6465  156.5497    7.1610 H   0  0  0  0  0  0  0  0  0  0  0  0
  -38.8649  152.2826    6.5606 H   0  0  0  0  0  0  0  0  0  0  0  0
  -40.2600  150.4170    3.9850 H   0  0  0  0  0  0  0  0  0  0  0  0
  -41.7390  149.9940    4.7780 H   0  0  0  0  0  0  0  0  0  0  0  0
  1  2  1  0
  2  3  1  0
  3  4  1  0
  4  5  2  0
  5  6  1  0
  6  7  2  0
  7  8  1  0
  8  9  2  0
  9 10  1  0
 10 11  1  0
 11 12  1  0
 12 13  2  0
 13 14  1  0
 14 15  1  0
 15 16  1  0
 16 17  2  0
 16 18  1  0
 18 19  1  0
 19 20  1  0
 20 21  1  0
 14 22  2  0
 22 23  1  0
 22 24  1  0
  9 25  1  0
 25 26  2  0
 26 27  1  0
 27 28  1  0
 28 29  1  0
 28 30  2  0
 27  3  2  0
 25  5  1  0
 24 11  2  0
 21 19  1  0
  1 31  1  0
  1 32  1  0
  1 33  1  0
  4 34  1  0
  7 35  1  0
  8 36  1  0
 12 37  1  0
 13 38  1  0
 15 39  1  0
 18 40  1  0
 19 41  1  0
 20 42  1  0
 20 43  1  0
 21 44  1  0
 21 45  1  0
 24 46  1  0
 26 47  1  0
 29 48  1  0
 29 49  1  0
M  END
>  <meeko>  (6) 
{"is_sidechain": false}

>  <vina_affinity_kcal_mol>  (6) 
-8.649

>  <pose_rank>  (6) 
6

$$$$

     RDKit          3D

 49 52  0  0  0  0  0  0  0  0999 V2000
  -32.9780  157.4580    5.2610 C   0  0  0  0  0  0  0  0  0  0  0  0
  -33.8010  156.8210    4.2820 O   0  0  0  0  0  0  0  0  0  0  0  0
  -34.5350  155.8150    4.8550 C   0  0  0  0  0  0  0  0  0  0  0  0
  -33.8590  154.7120    5.3860 C   0  0  0  0  0  0  0  0  0  0  0  0
  -34.5400  153.6250    5.9120 C   0  0  0  0  0  0  0  0  0  0  0  0
  -33.8340  152.6020    6.4250 N   0  0  0  0  0  0  0  0  0  0  0  0
  -34.5030  151.5540    6.9510 C   0  0  0  0  0  0  0  0  0  0  0  0
  -35.8770  151.4610    6.9830 C   0  0  0  0  0  0  0  0  0  0  0  0
  -36.6030  152.5080    6.4250 C   0  0  0  0  0  0  0  0  0  0  0  0
  -37.9810  152.4850    6.4590 O   0  0  0  0  0  0  0  0  0  0  0  0
  -38.6220  151.6000    5.6190 C   0  0  0  0  0  0  0  0  0  0  0  0
  -38.6030  151.6980    4.2270 C   0  0  0  0  0  0  0  0  0  0  0  0
  -39.3120  150.7780    3.4460 C   0  0  0  0  0  0  0  0  0  0  0  0
  -40.0610  149.7620    4.0470 C   0  0  0  0  0  0  0  0  0  0  0  0
  -40.7920  148.8010    3.3090 N   0  0  0  0  0  0  0  0  0  0  0  0
  -40.3390  147.6100    2.7830 C   0  0  0  0  0  0  0  0  0  0  0  0
  -39.1850  147.2000    2.8050 O   0  0  0  0  0  0  0  0  0  0  0  0
  -41.3750  146.9090    2.1850 N   0  0  0  0  0  0  0  0  0  0  0  0
  -41.1670  145.6180    1.6030 C   0  0  0  0  0  0  0  0  0  0  0  0
  -42.3250  144.8260    1.0630 C   0  0  0  0  0  0  0  0  0  0  0  0
  -41.3170  145.4140    0.1200 C   0  0  0  0  0  0  0  0  0  0  0  0
  -40.0780  149.6840    5.4520 C   0  0  0  0  0  0  0  0  0  0  0  0
  -40.9810  148.4490    6.2640 Cl  0  0  0  0  0  0  0  0  0  0  0  0
  -39.3720  150.6010    6.2340 C   0  0  0  0  0  0  0  0  0  0  0  0
  -35.9500  153.6340    5.8890 C   0  0  0  0  0  0  0  0  0  0  0  0
  -36.6350  154.7380    5.3340 C   0  0  0  0  0  0  0  0  0  0  0  0
  -35.9280  155.8250    4.8080 C   0  0  0  0  0  0  0  0  0  0  0  0
  -36.6740  156.9760    4.2480 C   0  0  0  0  0  0  0  0  0  0  0  0
  -36.6850  158.1120    5.0130 N   0  0  0  0  0  0  0  0  0  0  0  0
  -37.2360  156.9310    3.1640 O   0  0  0  0  0  0  0  0  0  0  0  0
  -33.3287  157.1865    6.2676 H   0  0  0  0  0  0  0  0  0  0  0  0
  -31.9361  157.1287    5.1345 H   0  0  0  0  0  0  0  0  0  0  0  0
  -33.0356  158.5492    5.1345 H   0  0  0  0  0  0  0  0  0  0  0  0
  -32.7590  154.7067    5.3863 H   0  0  0  0  0  0  0  0  0  0  0  0
  -33.9173  150.7269    7.3786 H   0  0  0  0  0  0  0  0  0  0  0  0
  -36.3805  150.5924    7.4324 H   0  0  0  0  0  0  0  0  0  0  0  0
  -38.0288  152.5011    3.7419 H   0  0  0  0  0  0  0  0  0  0  0  0
  -39.2796  150.8551    2.3492 H   0  0  0  0  0  0  0  0  0  0  0  0
  -41.7160  149.0930    3.0200 H   0  0  0  0  0  0  0  0  0  0  0  0
  -42.3060  147.1190    2.5140 H   0  0  0  0  0  0  0  0  0  0  0  0
  -40.3710  145.4302    2.3386 H   0  0  0  0  0  0  0  0  0  0  0  0
  -42.3653  143.7374    1.2157 H   0  0  0  0  0  0  0  0  0  0  0  0
  -43.4189  144.8812    1.1645 H   0  0  0  0  0  0  0  0  0  0  0  0
  -40.6183  144.7565   -0.4181 H   0  0  0  0  0  0  0  0  0  0  0  0
  -41.3660  146.0784   -0.7553 H   0  0  0  0  0  0  0  0  0  0  0  0
  -39.4084  150.5342    7.3314 H   0  0  0  0  0  0  0  0  0  0  0  0
  -37.7348  154.7431    5.3152 H   0  0  0  0  0  0  0  0  0  0  0  0
  -36.4440  158.0930    5.9940 H   0  0  0  0  0  0  0  0  0  0  0  0
  -37.3000  158.8510    4.6950 H   0  0  0  0  0  0  0  0  0  0  0  0
  1  2  1  0
  2  3  1  0
  3  4  1  0
  4  5  2  0
  5  6  1  0
  6  7  2  0
  7  8  1  0
  8  9  2  0
  9 10  1  0
 10 11  1  0
 11 12  1  0
 12 13  2  0
 13 14  1  0
 14 15  1  0
 15 16  1  0
 16 17  2  0
 16 18  1  0
 18 19  1  0
 19 20  1  0
 20 21  1  0
 14 22  2  0
 22 23  1  0
 22 24  1  0
  9 25  1  0
 25 26  2  0
 26 27  1  0
 27 28  1  0
 28 29  1  0
 28 30  2  0
 27  3  2  0
 25  5  1  0
 24 11  2  0
 21 19  1  0
  1 31  1  0
  1 32  1  0
  1 33  1  0
  4 34  1  0
  7 35  1  0
  8 36  1  0
 12 37  1  0
 13 38  1  0
 15 39  1  0
 18 40  1  0
 19 41  1  0
 20 42  1  0
 20 43  1  0
 21 44  1  0
 21 45  1  0
 24 46  1  0
 26 47  1  0
 29 48  1  0
 29 49  1  0
M  END
>  <meeko>  (7) 
{"is_sidechain": false}

>  <vina_affinity_kcal_mol>  (7) 
-8.415

>  <pose_rank>  (7) 
7

$$$$

     RDKit          3D

 49 52  0  0  0  0  0  0  0  0999 V2000
  -39.5200  158.1570    2.6690 C   0  0  0  0  0  0  0  0  0  0  0  0
  -40.7110  158.4270    1.9260 O   0  0  0  0  0  0  0  0  0  0  0  0
  -40.4110  159.0790    0.7590 C   0  0  0  0  0  0  0  0  0  0  0  0
  -39.2390  158.7310    0.0810 C   0  0  0  0  0  0  0  0  0  0  0  0
  -38.8350  159.3990   -1.0650 C   0  0  0  0  0  0  0  0  0  0  0  0
  -37.7070  159.0060   -1.6830 N   0  0  0  0  0  0  0  0  0  0  0  0
  -37.3270  159.6500   -2.8070 C   0  0  0  0  0  0  0  0  0  0  0  0
  -38.0230  160.7040   -3.3580 C   0  0  0  0  0  0  0  0  0  0  0  0
  -39.1730  161.1250   -2.6990 C   0  0  0  0  0  0  0  0  0  0  0  0
  -39.9290  162.1530   -3.2230 O   0  0  0  0  0  0  0  0  0  0  0  0
  -39.3090  163.0090   -4.1070 C   0  0  0  0  0  0  0  0  0  0  0  0
  -39.0810  164.3610   -3.8480 C   0  0  0  0  0  0  0  0  0  0  0  0
  -38.4780  165.1730   -4.8160 C   0  0  0  0  0  0  0  0  0  0  0  0
  -38.1120  164.6470   -6.0580 C   0  0  0  0  0  0  0  0  0  0  0  0
  -37.4940  165.4160   -7.0720 N   0  0  0  0  0  0  0  0  0  0  0  0
  -38.0780  165.9810   -8.1850 C   0  0  0  0  0  0  0  0  0  0  0  0
  -39.2460  165.8560   -8.5330 O   0  0  0  0  0  0  0  0  0  0  0  0
  -37.1530  166.7210   -8.9060 N   0  0  0  0  0  0  0  0  0  0  0  0
  -37.5280  167.4430  -10.0840 C   0  0  0  0  0  0  0  0  0  0  0  0
  -36.4800  167.9640  -11.0280 C   0  0  0  0  0  0  0  0  0  0  0  0
  -37.3630  166.8250  -11.4460 C   0  0  0  0  0  0  0  0  0  0  0  0
  -38.3590  163.2840   -6.3070 C   0  0  0  0  0  0  0  0  0  0  0  0
  -37.9280  162.5630   -7.8230 Cl  0  0  0  0  0  0  0  0  0  0  0  0
  -38.9620  162.4720   -5.3440 C   0  0  0  0  0  0  0  0  0  0  0  0
  -39.6240  160.4680   -1.5390 C   0  0  0  0  0  0  0  0  0  0  0  0
  -40.7970  160.8350   -0.8430 C   0  0  0  0  0  0  0  0  0  0  0  0
  -41.1870  160.1460    0.3110 C   0  0  0  0  0  0  0  0  0  0  0  0
  -42.4320  160.5430    1.0090 C   0  0  0  0  0  0  0  0  0  0  0  0
  -43.0290  159.5720    1.7680 N   0  0  0  0  0  0  0  0  0  0  0  0
  -42.8990  161.6700    0.9320 O   0  0  0  0  0  0  0  0  0  0  0  0
  -39.7402  158.2069    3.7456 H   0  0  0  0  0  0  0  0  0  0  0  0
  -39.1502  157.1522    2.4166 H   0  0  0  0  0  0  0  0  0  0  0  0
  -38.7531  158.9041    2.4166 H   0  0  0  0  0  0  0  0  0  0  0  0
  -38.6216  157.9063    0.4664 H   0  0  0  0  0  0  0  0  0  0  0  0
  -36.4093  159.3142   -3.3119 H   0  0  0  0  0  0  0  0  0  0  0  0
  -37.6824  161.1930   -4.2826 H   0  0  0  0  0  0  0  0  0  0  0  0
  -39.3762  164.7906   -2.8793 H   0  0  0  0  0  0  0  0  0  0  0  0
  -38.2906  166.2346   -4.5970 H   0  0  0  0  0  0  0  0  0  0  0  0
  -36.4820  165.4320   -7.0420 H   0  0  0  0  0  0  0  0  0  0  0  0
  -36.3550  167.0640   -8.3910 H   0  0  0  0  0  0  0  0  0  0  0  0
  -38.3656  167.8886   -9.5274 H   0  0  0  0  0  0  0  0  0  0  0  0
  -36.6020  168.9534  -11.4929 H   0  0  0  0  0  0  0  0  0  0  0  0
  -35.3933  168.1244  -10.9709 H   0  0  0  0  0  0  0  0  0  0  0  0
  -38.1322  166.9798  -12.2169 H   0  0  0  0  0  0  0  0  0  0  0  0
  -37.1914  165.8055  -11.8217 H   0  0  0  0  0  0  0  0  0  0  0  0
  -39.1620  161.4125   -5.5618 H   0  0  0  0  0  0  0  0  0  0  0  0
  -41.4100  161.6706   -1.2117 H   0  0  0  0  0  0  0  0  0  0  0  0
  -42.8030  158.5930    1.6490 H   0  0  0  0  0  0  0  0  0  0  0  0
  -43.9440  159.8010    2.1360 H   0  0  0  0  0  0  0  0  0  0  0  0
  1  2  1  0
  2  3  1  0
  3  4  1  0
  4  5  2  0
  5  6  1  0
  6  7  2  0
  7  8  1  0
  8  9  2  0
  9 10  1  0
 10 11  1  0
 11 12  1  0
 12 13  2  0
 13 14  1  0
 14 15  1  0
 15 16  1  0
 16 17  2  0
 16 18  1  0
 18 19  1  0
 19 20  1  0
 20 21  1  0
 14 22  2  0
 22 23  1  0
 22 24  1  0
  9 25  1  0
 25 26  2  0
 26 27  1  0
 27 28  1  0
 28 29  1  0
 28 30  2  0
 27  3  2  0
 25  5  1  0
 24 11  2  0
 21 19  1  0
  1 31  1  0
  1 32  1  0
  1 33  1  0
  4 34  1  0
  7 35  1  0
  8 36  1  0
 12 37  1  0
 13 38  1  0
 15 39  1  0
 18 40  1  0
 19 41  1  0
 20 42  1  0
 20 43  1  0
 21 44  1  0
 21 45  1  0
 24 46  1  0
 26 47  1  0
 29 48  1  0
 29 49  1  0
M  END
>  <meeko>  (8) 
{"is_sidechain": false}

>  <vina_affinity_kcal_mol>  (8) 
-8.272

>  <pose_rank>  (8) 
8

$$$$

     RDKit          3D

 49 52  0  0  0  0  0  0  0  0999 V2000
  -41.1140  147.0520    5.8390 C   0  0  0  0  0  0  0  0  0  0  0  0
  -40.9700  147.9860    4.7670 O   0  0  0  0  0  0  0  0  0  0  0  0
  -39.8400  148.7420    4.9400 C   0  0  0  0  0  0  0  0  0  0  0  0
  -38.9080  148.3430    5.9030 C   0  0  0  0  0  0  0  0  0  0  0  0
  -37.7800  149.1000    6.1830 C   0  0  0  0  0  0  0  0  0  0  0  0
  -36.9120  148.6540    7.1070 N   0  0  0  0  0  0  0  0  0  0  0  0
  -35.8080  149.3870    7.3640 C   0  0  0  0  0  0  0  0  0  0  0  0
  -35.5200  150.5820    6.7410 C   0  0  0  0  0  0  0  0  0  0  0  0
  -36.4360  151.0530    5.8070 C   0  0  0  0  0  0  0  0  0  0  0  0
  -36.1840  152.2260    5.1270 O   0  0  0  0  0  0  0  0  0  0  0  0
  -36.2960  153.4050    5.8330 C   0  0  0  0  0  0  0  0  0  0  0  0
  -37.4820  153.8490    6.4190 C   0  0  0  0  0  0  0  0  0  0  0  0
  -37.5200  155.0790    7.0880 C   0  0  0  0  0  0  0  0  0  0  0  0
  -36.3800  155.8840    7.1630 C   0  0  0  0  0  0  0  0  0  0  0  0
  -36.3580  157.1310    7.8300 N   0  0  0  0  0  0  0  0  0  0  0  0
  -36.6710  158.3730    7.3210 C   0  0  0  0  0  0  0  0  0  0  0  0
  -36.9650  158.6260    6.1590 O   0  0  0  0  0  0  0  0  0  0  0  0
  -36.5940  159.3450    8.3070 N   0  0  0  0  0  0  0  0  0  0  0  0
  -36.9180  160.7120    8.0360 C   0  0  0  0  0  0  0  0  0  0  0  0
  -38.0630  161.3830    8.7430 C   0  0  0  0  0  0  0  0  0  0  0  0
  -36.6510  161.7800    9.0620 C   0  0  0  0  0  0  0  0  0  0  0  0
  -35.1960  155.4250    6.5580 C   0  0  0  0  0  0  0  0  0  0  0  0
  -33.7440  156.3690    6.6150 Cl  0  0  0  0  0  0  0  0  0  0  0  0
  -35.1540  154.2000    5.8890 C   0  0  0  0  0  0  0  0  0  0  0  0
  -37.5880  150.3110    5.4860 C   0  0  0  0  0  0  0  0  0  0  0  0
  -38.5390  150.7270    4.5280 C   0  0  0  0  0  0  0  0  0  0  0  0
  -39.6700  149.9480    4.2610 C   0  0  0  0  0  0  0  0  0  0  0  0
  -40.6410  150.4010    3.2380 C   0  0  0  0  0  0  0  0  0  0  0  0
  -41.9560  150.4120    3.6210 N   0  0  0  0  0  0  0  0  0  0  0  0
  -40.2990  150.7610    2.1200 O   0  0  0  0  0  0  0  0  0  0  0  0
  -41.0324  147.5812    6.7999 H   0  0  0  0  0  0  0  0  0  0  0  0
  -42.0979  146.5648    5.7711 H   0  0  0  0  0  0  0  0  0  0  0  0
  -40.3226  146.2911    5.7711 H   0  0  0  0  0  0  0  0  0  0  0  0
  -39.0736  147.4047    6.4526 H   0  0  0  0  0  0  0  0  0  0  0  0
  -35.0975  149.0087    8.1137 H   0  0  0  0  0  0  0  0  0  0  0  0
  -34.6017  151.1412    6.9735 H   0  0  0  0  0  0  0  0  0  0  0  0
  -38.3899  153.2312    6.3554 H   0  0  0  0  0  0  0  0  0  0  0  0
  -38.4559  155.4145    7.5588 H   0  0  0  0  0  0  0  0  0  0  0  0
  -35.9280  157.1200    8.7470 H   0  0  0  0  0  0  0  0  0  0  0  0
  -36.7050  159.0270    9.2590 H   0  0  0  0  0  0  0  0  0  0  0  0
  -36.6376  160.5548    6.9840 H   0  0  0  0  0  0  0  0  0  0  0  0
  -38.7180  162.0755    8.1940 H   0  0  0  0  0  0  0  0  0  0  0  0
  -38.9242  161.0345    9.3319 H   0  0  0  0  0  0  0  0  0  0  0  0
  -36.2715  162.7631    8.7465 H   0  0  0  0  0  0  0  0  0  0  0  0
  -36.0495  161.8426    9.9809 H   0  0  0  0  0  0  0  0  0  0  0  0
  -34.2231  153.8645    5.4084 H   0  0  0  0  0  0  0  0  0  0  0  0
  -38.3889  151.6727    3.9866 H   0  0  0  0  0  0  0  0  0  0  0  0
  -42.2750  149.8980    4.4320 H   0  0  0  0  0  0  0  0  0  0  0  0
  -42.6280  150.5940    2.8860 H   0  0  0  0  0  0  0  0  0  0  0  0
  1  2  1  0
  2  3  1  0
  3  4  1  0
  4  5  2  0
  5  6  1  0
  6  7  2  0
  7  8  1  0
  8  9  2  0
  9 10  1  0
 10 11  1  0
 11 12  1  0
 12 13  2  0
 13 14  1  0
 14 15  1  0
 15 16  1  0
 16 17  2  0
 16 18  1  0
 18 19  1  0
 19 20  1  0
 20 21  1  0
 14 22  2  0
 22 23  1  0
 22 24  1  0
  9 25  1  0
 25 26  2  0
 26 27  1  0
 27 28  1  0
 28 29  1  0
 28 30  2  0
 27  3  2  0
 25  5  1  0
 24 11  2  0
 21 19  1  0
  1 31  1  0
  1 32  1  0
  1 33  1  0
  4 34  1  0
  7 35  1  0
  8 36  1  0
 12 37  1  0
 13 38  1  0
 15 39  1  0
 18 40  1  0
 19 41  1  0
 20 42  1  0
 20 43  1  0
 21 44  1  0
 21 45  1  0
 24 46  1  0
 26 47  1  0
 29 48  1  0
 29 49  1  0
M  END
>  <meeko>  (9) 
{"is_sidechain": false}

>  <vina_affinity_kcal_mol>  (9) 
-8.183

>  <pose_rank>  (9) 
9

$$$$

     RDKit          3D

 49 52  0  0  0  0  0  0  0  0999 V2000
  -38.5560  147.0690   -2.4680 C   0  0  0  0  0  0  0  0  0  0  0  0
  -37.5460  147.8910   -1.8800 O   0  0  0  0  0  0  0  0  0  0  0  0
  -37.6890  147.9270   -0.5180 C   0  0  0  0  0  0  0  0  0  0  0  0
  -38.9410  147.6320    0.0320 C   0  0  0  0  0  0  0  0  0  0  0  0
  -39.1770  147.7220    1.3950 C   0  0  0  0  0  0  0  0  0  0  0  0
  -40.3970  147.4080    1.8650 N   0  0  0  0  0  0  0  0  0  0  0  0
  -40.6160  147.4820    3.1950 C   0  0  0  0  0  0  0  0  0  0  0  0
  -39.6620  147.8750    4.1080 C   0  0  0  0  0  0  0  0  0  0  0  0
  -38.4110  148.2270    3.6130 C   0  0  0  0  0  0  0  0  0  0  0  0
  -37.4060  148.5960    4.4830 O   0  0  0  0  0  0  0  0  0  0  0  0
  -37.4350  149.8830    4.9770 C   0  0  0  0  0  0  0  0  0  0  0  0
  -38.2360  150.8980    4.4510 C   0  0  0  0  0  0  0  0  0  0  0  0
  -38.1780  152.1900    4.9870 C   0  0  0  0  0  0  0  0  0  0  0  0
  -37.3090  152.4850    6.0400 C   0  0  0  0  0  0  0  0  0  0  0  0
  -37.2120  153.7690    6.6260 N   0  0  0  0  0  0  0  0  0  0  0  0
  -36.4000  154.8170    6.2480 C   0  0  0  0  0  0  0  0  0  0  0  0
  -35.5540  154.7940    5.3630 O   0  0  0  0  0  0  0  0  0  0  0  0
  -36.6440  155.9370    7.0270 N   0  0  0  0  0  0  0  0  0  0  0  0
  -35.9550  157.1710    6.7990 C   0  0  0  0  0  0  0  0  0  0  0  0
  -36.5240  158.2040    5.8660 C   0  0  0  0  0  0  0  0  0  0  0  0
  -36.5000  158.4630    7.3450 C   0  0  0  0  0  0  0  0  0  0  0  0
  -36.5010  151.4530    6.5520 C   0  0  0  0  0  0  0  0  0  0  0  0
  -35.4030  151.7460    7.8590 Cl  0  0  0  0  0  0  0  0  0  0  0  0
  -36.5550  150.1630    6.0190 C   0  0  0  0  0  0  0  0  0  0  0  0
  -38.1260  148.1410    2.2380 C   0  0  0  0  0  0  0  0  0  0  0  0
  -36.8670  148.4590    1.6830 C   0  0  0  0  0  0  0  0  0  0  0  0
  -36.6500  148.3620    0.3040 C   0  0  0  0  0  0  0  0  0  0  0  0
  -35.3140  148.6860   -0.2480 C   0  0  0  0  0  0  0  0  0  0  0  0
  -35.2580  149.7640   -1.0900 N   0  0  0  0  0  0  0  0  0  0  0  0
  -34.3120  148.0450    0.0370 O   0  0  0  0  0  0  0  0  0  0  0  0
  -39.1462  146.5887   -1.6737 H   0  0  0  0  0  0  0  0  0  0  0  0
  -39.2166  147.6894   -3.0915 H   0  0  0  0  0  0  0  0  0  0  0  0
  -38.0827  146.2962   -3.0915 H   0  0  0  0  0  0  0  0  0  0  0  0
  -39.7591  147.3207   -0.6342 H   0  0  0  0  0  0  0  0  0  0  0  0
  -41.6139  147.2129    3.5716 H   0  0  0  0  0  0  0  0  0  0  0  0
  -39.8811  147.9090    5.1854 H   0  0  0  0  0  0  0  0  0  0  0  0
  -38.9148  150.6820    3.6128 H   0  0  0  0  0  0  0  0  0  0  0  0
  -38.8228  152.9802    4.5750 H   0  0  0  0  0  0  0  0  0  0  0  0
  -37.6970  153.8770    7.5080 H   0  0  0  0  0  0  0  0  0  0  0  0
  -37.5560  155.9930    7.4570 H   0  0  0  0  0  0  0  0  0  0  0  0
  -34.9974  156.6353    6.8761 H   0  0  0  0  0  0  0  0  0  0  0  0
  -35.8568  158.7686    5.1981 H   0  0  0  0  0  0  0  0  0  0  0  0
  -37.3029  158.2049    5.0893 H   0  0  0  0  0  0  0  0  0  0  0  0
  -35.8151  159.2170    7.7602 H   0  0  0  0  0  0  0  0  0  0  0  0
  -37.2537  158.7319    8.0998 H   0  0  0  0  0  0  0  0  0  0  0  0
  -35.9051  149.3717    6.4208 H   0  0  0  0  0  0  0  0  0  0  0  0
  -36.0487  148.7862    2.3413 H   0  0  0  0  0  0  0  0  0  0  0  0
  -36.0900  150.1430   -1.5210 H   0  0  0  0  0  0  0  0  0  0  0  0
  -34.3760  149.9040   -1.5680 H   0  0  0  0  0  0  0  0  0  0  0  0
  1  2  1  0
  2  3  1  0
  3  4  1  0
  4  5  2  0
  5  6  1  0
  6  7  2  0
  7  8  1  0
  8  9  2  0
  9 10  1  0
 10 11  1  0
 11 12  1  0
 12 13  2  0
 13 14  1  0
 14 15  1  0
 15 16  1  0
 16 17  2  0
 16 18  1  0
 18 19  1  0
 19 20  1  0
 20 21  1  0
 14 22  2  0
 22 23  1  0
 22 24  1  0
  9 25  1  0
 25 26  2  0
 26 27  1  0
 27 28  1  0
 28 29  1  0
 28 30  2  0
 27  3  2  0
 25  5  1  0
 24 11  2  0
 21 19  1  0
  1 31  1  0
  1 32  1  0
  1 33  1  0
  4 34  1  0
  7 35  1  0
  8 36  1  0
 12 37  1  0
 13 38  1  0
 15 39  1  0
 18 40  1  0
 19 41  1  0
 20 42  1  0
 20 43  1  0
 21 44  1  0
 21 45  1  0
 24 46  1  0
 26 47  1  0
 29 48  1  0
 29 49  1  0
M  END
>  <meeko>  (10) 
{"is_sidechain": false}

>  <vina_affinity_kcal_mol>  (10) 
-7.947

>  <pose_rank>  (10) 
10

$$$$
