
     RDKit          3D

 54 57  0  0  0  0  0  0  0  0999 V2000
   -5.2500    0.2990  -13.4180 C   0  0  0  0  0  0  0  0  0  0  0  0
   -5.5970    1.2120  -14.5580 C   0  0  0  0  0  0  0  0  0  0  0  0
   -5.6120    2.5950  -14.3260 C   0  0  0  0  0  0  0  0  0  0  0  0
   -5.9090    3.5010  -15.3520 C   0  0  0  0  0  0  0  0  0  0  0  0
   -6.1970    3.0660  -16.6460 C   0  0  0  0  0  0  0  0  0  0  0  0
   -6.4900    3.9220  -17.7110 N   0  0  0  0  0  0  0  0  0  0  0  0
   -7.5670    4.7420  -18.0320 C   0  0  0  0  0  0  0  0  0  0  0  0
   -7.5970    5.4800  -19.1480 N   0  0  0  0  0  0  0  0  0  0  0  0
   -8.6780    6.2500  -19.3430 C   0  0  0  0  0  0  0  0  0  0  0  0
   -9.7370    6.2990  -18.4730 C   0  0  0  0  0  0  0  0  0  0  0  0
   -9.6480    5.4990  -17.3520 C   0  0  0  0  0  0  0  0  0  0  0  0
  -10.7080    5.5070  -16.3980 N   0  0  0  0  0  0  0  0  0  0  0  0
  -11.9270    6.0850  -16.9740 C   0  0  0  0  0  0  0  0  0  0  0  0
  -10.8710    4.4730  -15.4190 C   0  0  0  0  0  0  0  0  0  0  0  0
   -9.8900    3.4290  -15.2300 C   0  0  0  0  0  0  0  0  0  0  0  0
   -9.9910    2.3640  -14.3030 C   0  0  0  0  0  0  0  0  0  0  0  0
  -11.1750    2.4330  -13.5820 C   0  0  0  0  0  0  0  0  0  0  0  0
  -11.5830    1.5540  -12.6060 C   0  0  0  0  0  0  0  0  0  0  0  0
  -10.9710    0.3350  -12.0260 C   0  0  0  0  0  0  0  0  0  0  0  0
  -12.7980    2.0530  -12.2000 N   0  0  0  0  0  0  0  0  0  0  0  0
  -13.6610    1.5050  -11.1780 C   0  0  0  0  0  0  0  0  0  0  0  0
  -13.1950    3.1620  -12.8560 N   0  0  0  0  0  0  0  0  0  0  0  0
  -12.2010    3.4310  -13.7170 C   0  0  0  0  0  0  0  0  0  0  0  0
  -12.0700    4.4750  -14.6470 C   0  0  0  0  0  0  0  0  0  0  0  0
   -8.5630    4.7310  -17.1330 N   0  0  0  0  0  0  0  0  0  0  0  0
   -6.1690    1.6850  -16.8840 C   0  0  0  0  0  0  0  0  0  0  0  0
   -5.8770    0.7650  -15.8600 C   0  0  0  0  0  0  0  0  0  0  0  0
   -5.8500   -0.9580  -16.2940 S   0  0  0  0  0  0  0  0  0  0  0  0
   -5.9110   -0.9060  -17.9720 N   0  0  0  0  0  0  0  0  0  0  0  0
   -7.0700   -1.5930  -15.8600 O   0  0  0  0  0  0  0  0  0  0  0  0
   -4.5520   -1.5120  -15.9840 O   0  0  0  0  0  0  0  0  0  0  0  0
   -5.4450    0.8122  -12.4648 H   0  0  0  0  0  0  0  0  0  0  0  0
   -5.8649   -0.6112  -13.4769 H   0  0  0  0  0  0  0  0  0  0  0  0
   -4.1858    0.0270  -13.4769 H   0  0  0  0  0  0  0  0  0  0  0  0
   -5.3862    2.9755  -13.3189 H   0  0  0  0  0  0  0  0  0  0  0  0
   -5.9153    4.5789  -15.1328 H   0  0  0  0  0  0  0  0  0  0  0  0
   -5.8370    3.9450  -18.4820 H   0  0  0  0  0  0  0  0  0  0  0  0
   -8.7170    6.8745  -20.2477 H   0  0  0  0  0  0  0  0  0  0  0  0
  -10.6104    6.9414  -18.6587 H   0  0  0  0  0  0  0  0  0  0  0  0
  -12.5997    6.4039  -16.1642 H   0  0  0  0  0  0  0  0  0  0  0  0
  -11.6629    6.9538  -17.5949 H   0  0  0  0  0  0  0  0  0  0  0  0
  -12.4325    5.3307  -17.5949 H   0  0  0  0  0  0  0  0  0  0  0  0
   -8.9887    3.4649  -15.8596 H   0  0  0  0  0  0  0  0  0  0  0  0
   -9.2288    1.5819  -14.1710 H   0  0  0  0  0  0  0  0  0  0  0  0
  -11.0017    0.3961  -10.9281 H   0  0  0  0  0  0  0  0  0  0  0  0
  -11.5312   -0.5509  -12.3597 H   0  0  0  0  0  0  0  0  0  0  0  0
   -9.9259    0.2551  -12.3597 H   0  0  0  0  0  0  0  0  0  0  0  0
  -13.2609    1.7590  -10.1853 H   0  0  0  0  0  0  0  0  0  0  0  0
  -14.6709    1.9277  -11.2855 H   0  0  0  0  0  0  0  0  0  0  0  0
  -13.7079    0.4113  -11.2855 H   0  0  0  0  0  0  0  0  0  0  0  0
  -12.8441    5.2464  -14.7722 H   0  0  0  0  0  0  0  0  0  0  0  0
   -6.3806    1.3110  -17.8966 H   0  0  0  0  0  0  0  0  0  0  0  0
   -6.1380   -1.8300  -18.3390 H   0  0  0  0  0  0  0  0  0  0  0  0
   -5.0370   -0.5210  -18.3340 H   0  0  0  0  0  0  0  0  0  0  0  0
  1  2  1  0
  2  3  1  0
  3  4  2  0
  4  5  1  0
  5  6  1  0
  6  7  1  0
  7  8  2  0
  8  9  1  0
  9 10  2  0
 10 11  1  0
 11 12  1  0
 12 13  1  0
 12 14  1  0
 14 15  1  0
 15 16  2  0
 16 17  1  0
 17 18  2  0
 18 19  1  0
 18 20  1  0
 20 21  1  0
 20 22  1  0
 22 23  2  0
 23 24  1  0
 11 25  2  0
  5 26  2  0
 26 27  1  0
 27 28  1  0
 28 29  1  0
 28 30  2  0
 28 31  2  0
 27  2  2  0
 25  7  1  0
 24 14  2  0
 23 17  1  0
  1 32  1  0
  1 33  1  0
  1 34  1  0
  3 35  1  0
  4 36  1  0
  6 37  1  0
  9 38  1  0
 10 39  1  0
 13 40  1  0
 13 41  1  0
 13 42  1  0
 15 43  1  0
 16 44  1  0
 19 45  1  0
 19 46  1  0
 19 47  1  0
 21 48  1  0
 21 49  1  0
 21 50  1  0
 24 51  1  0
 26 52  1  0
 29 53  1  0
 29 54  1  0
M  END
>  <meeko>  (1) 
{"is_sidechain": false}

>  <vina_affinity_kcal_mol>  (1) 
-9.68

>  <pose_rank>  (1) 
1

$$$$

     RDKit          3D

 54 57  0  0  0  0  0  0  0  0999 V2000
  -15.0310    1.0870   -9.6040 C   0  0  0  0  0  0  0  0  0  0  0  0
  -13.7640    1.0330  -10.4080 C   0  0  0  0  0  0  0  0  0  0  0  0
  -13.6270    1.9020  -11.4990 C   0  0  0  0  0  0  0  0  0  0  0  0
  -12.4620    1.9130  -12.2780 C   0  0  0  0  0  0  0  0  0  0  0  0
  -11.3900    1.0660  -11.9960 C   0  0  0  0  0  0  0  0  0  0  0  0
  -10.2010    1.0400  -12.7280 N   0  0  0  0  0  0  0  0  0  0  0  0
   -9.6590    1.8390  -13.7310 C   0  0  0  0  0  0  0  0  0  0  0  0
   -8.3850    1.7240  -14.1270 N   0  0  0  0  0  0  0  0  0  0  0  0
   -7.9670    2.5620  -15.0870 C   0  0  0  0  0  0  0  0  0  0  0  0
   -8.7750    3.4990  -15.6780 C   0  0  0  0  0  0  0  0  0  0  0  0
  -10.0810    3.5500  -15.2340 C   0  0  0  0  0  0  0  0  0  0  0  0
  -10.9770    4.5080  -15.7960 N   0  0  0  0  0  0  0  0  0  0  0  0
  -12.0200    4.8770  -14.8340 C   0  0  0  0  0  0  0  0  0  0  0  0
  -10.5450    5.5170  -16.7160 C   0  0  0  0  0  0  0  0  0  0  0  0
  -10.0310    6.7930  -16.2750 C   0  0  0  0  0  0  0  0  0  0  0  0
   -9.6090    7.8460  -17.1230 C   0  0  0  0  0  0  0  0  0  0  0  0
   -9.7560    7.5080  -18.4610 C   0  0  0  0  0  0  0  0  0  0  0  0
   -9.4410    8.3030  -19.5380 C   0  0  0  0  0  0  0  0  0  0  0  0
   -8.8870    9.6730  -19.6540 C   0  0  0  0  0  0  0  0  0  0  0  0
   -9.7570    7.5240  -20.6260 N   0  0  0  0  0  0  0  0  0  0  0  0
   -9.6110    7.8820  -22.0180 C   0  0  0  0  0  0  0  0  0  0  0  0
  -10.2620    6.3120  -20.3190 N   0  0  0  0  0  0  0  0  0  0  0  0
  -10.2650    6.2670  -18.9780 C   0  0  0  0  0  0  0  0  0  0  0  0
  -10.6760    5.2420  -18.1100 C   0  0  0  0  0  0  0  0  0  0  0  0
  -10.5150    2.7260  -14.2600 N   0  0  0  0  0  0  0  0  0  0  0  0
  -11.5190    0.2070  -10.8950 C   0  0  0  0  0  0  0  0  0  0  0  0
  -12.6860    0.1830  -10.1110 C   0  0  0  0  0  0  0  0  0  0  0  0
  -12.7170   -0.9350   -8.7290 S   0  0  0  0  0  0  0  0  0  0  0  0
  -11.2100   -1.6710   -8.8290 N   0  0  0  0  0  0  0  0  0  0  0  0
  -13.6940   -1.9710   -8.9580 O   0  0  0  0  0  0  0  0  0  0  0  0
  -12.6840   -0.1800   -7.4970 O   0  0  0  0  0  0  0  0  0  0  0  0
  -14.7856    1.0765   -8.5318 H   0  0  0  0  0  0  0  0  0  0  0  0
  -15.5796    2.0093   -9.8456 H   0  0  0  0  0  0  0  0  0  0  0  0
  -15.6560    0.2147   -9.8456 H   0  0  0  0  0  0  0  0  0  0  0  0
  -14.4495    2.5885  -11.7486 H   0  0  0  0  0  0  0  0  0  0  0  0
  -12.3914    2.6046  -13.1304 H   0  0  0  0  0  0  0  0  0  0  0  0
   -9.5820    0.2540  -12.5850 H   0  0  0  0  0  0  0  0  0  0  0  0
   -6.9202    2.4940  -15.4179 H   0  0  0  0  0  0  0  0  0  0  0  0
   -8.4027    4.1734  -16.4632 H   0  0  0  0  0  0  0  0  0  0  0  0
  -11.6393    4.7423  -13.8108 H   0  0  0  0  0  0  0  0  0  0  0  0
  -12.3021    5.9295  -14.9847 H   0  0  0  0  0  0  0  0  0  0  0  0
  -12.9012    4.2361  -14.9847 H   0  0  0  0  0  0  0  0  0  0  0  0
   -9.9616    6.9608  -15.1901 H   0  0  0  0  0  0  0  0  0  0  0  0
   -9.2149    8.8091  -16.7665 H   0  0  0  0  0  0  0  0  0  0  0  0
   -8.7195   10.0871  -18.6488 H   0  0  0  0  0  0  0  0  0  0  0  0
   -7.9325    9.6376  -20.1996 H   0  0  0  0  0  0  0  0  0  0  0  0
   -9.5978   10.3110  -20.1996 H   0  0  0  0  0  0  0  0  0  0  0  0
   -9.1966    8.8981  -22.0937 H   0  0  0  0  0  0  0  0  0  0  0  0
   -8.9310    7.1711  -22.5101 H   0  0  0  0  0  0  0  0  0  0  0  0
  -10.5943    7.8494  -22.5101 H   0  0  0  0  0  0  0  0  0  0  0  0
  -11.0742    4.2864  -18.4819 H   0  0  0  0  0  0  0  0  0  0  0  0
  -10.6866   -0.4647  -10.6384 H   0  0  0  0  0  0  0  0  0  0  0  0
  -11.1780   -2.4780   -8.2070 H   0  0  0  0  0  0  0  0  0  0  0  0
  -10.4800   -0.9800   -8.6500 H   0  0  0  0  0  0  0  0  0  0  0  0
  1  2  1  0
  2  3  1  0
  3  4  2  0
  4  5  1  0
  5  6  1  0
  6  7  1  0
  7  8  2  0
  8  9  1  0
  9 10  2  0
 10 11  1  0
 11 12  1  0
 12 13  1  0
 12 14  1  0
 14 15  1  0
 15 16  2  0
 16 17  1  0
 17 18  2  0
 18 19  1  0
 18 20  1  0
 20 21  1  0
 20 22  1  0
 22 23  2  0
 23 24  1  0
 11 25  2  0
  5 26  2  0
 26 27  1  0
 27 28  1  0
 28 29  1  0
 28 30  2  0
 28 31  2  0
 27  2  2  0
 25  7  1  0
 24 14  2  0
 23 17  1  0
  1 32  1  0
  1 33  1  0
  1 34  1  0
  3 35  1  0
  4 36  1  0
  6 37  1  0
  9 38  1  0
 10 39  1  0
 13 40  1  0
 13 41  1  0
 13 42  1  0
 15 43  1  0
 16 44  1  0
 19 45  1  0
 19 46  1  0
 19 47  1  0
 21 48  1  0
 21 49  1  0
 21 50  1  0
 24 51  1  0
 26 52  1  0
 29 53  1  0
 29 54  1  0
M  END
>  <meeko>  (2) 
{"is_sidechain": false}

>  <vina_affinity_kcal_mol>  (2) 
-9.512

>  <pose_rank>  (2) 
2

$$$$

     RDKit          3D

 54 57  0  0  0  0  0  0  0  0999 V2000
   -4.4100   -2.7640  -14.1560 C   0  0  0  0  0  0  0  0  0  0  0  0
   -5.2860   -1.8010  -14.9040 C   0  0  0  0  0  0  0  0  0  0  0  0
   -5.0380   -1.5910  -16.2680 C   0  0  0  0  0  0  0  0  0  0  0  0
   -5.8310   -0.7190  -17.0250 C   0  0  0  0  0  0  0  0  0  0  0  0
   -6.9010   -0.0280  -16.4560 C   0  0  0  0  0  0  0  0  0  0  0  0
   -7.7330    0.8440  -17.1630 N   0  0  0  0  0  0  0  0  0  0  0  0
   -7.8190    2.2290  -17.2740 C   0  0  0  0  0  0  0  0  0  0  0  0
   -6.9360    2.9460  -17.9790 N   0  0  0  0  0  0  0  0  0  0  0  0
   -7.1070    4.2770  -17.9980 C   0  0  0  0  0  0  0  0  0  0  0  0
   -8.1350    4.9160  -17.3540 C   0  0  0  0  0  0  0  0  0  0  0  0
   -9.0190    4.1130  -16.6610 C   0  0  0  0  0  0  0  0  0  0  0  0
  -10.1070    4.7100  -15.9580 N   0  0  0  0  0  0  0  0  0  0  0  0
  -10.8490    5.6310  -16.8260 C   0  0  0  0  0  0  0  0  0  0  0  0
  -10.8510    4.0100  -14.9540 C   0  0  0  0  0  0  0  0  0  0  0  0
  -12.2150    4.3560  -14.6240 C   0  0  0  0  0  0  0  0  0  0  0  0
  -13.0040    3.7280  -13.6310 C   0  0  0  0  0  0  0  0  0  0  0  0
  -12.2990    2.7210  -12.9860 C   0  0  0  0  0  0  0  0  0  0  0  0
  -12.7720    1.9200  -11.9730 C   0  0  0  0  0  0  0  0  0  0  0  0
  -14.0750    1.8450  -11.2700 C   0  0  0  0  0  0  0  0  0  0  0  0
  -11.7120    1.0920  -11.6860 N   0  0  0  0  0  0  0  0  0  0  0  0
  -11.6780    0.0440  -10.6910 C   0  0  0  0  0  0  0  0  0  0  0  0
  -10.6070    1.3220  -12.4220 N   0  0  0  0  0  0  0  0  0  0  0  0
  -10.9420    2.3250  -13.2490 C   0  0  0  0  0  0  0  0  0  0  0  0
  -10.1860    2.9680  -14.2430 C   0  0  0  0  0  0  0  0  0  0  0  0
   -8.8540    2.7760  -16.6190 N   0  0  0  0  0  0  0  0  0  0  0  0
   -7.1600   -0.2480  -15.0960 C   0  0  0  0  0  0  0  0  0  0  0  0
   -6.3670   -1.1170  -14.3240 C   0  0  0  0  0  0  0  0  0  0  0  0
   -6.8130   -1.3270  -12.6170 S   0  0  0  0  0  0  0  0  0  0  0  0
   -8.1320   -0.2980  -12.4600 N   0  0  0  0  0  0  0  0  0  0  0  0
   -5.7750   -0.7930  -11.7690 O   0  0  0  0  0  0  0  0  0  0  0  0
   -7.3490   -2.6540  -12.4180 O   0  0  0  0  0  0  0  0  0  0  0  0
   -4.5437   -2.6170  -13.0741 H   0  0  0  0  0  0  0  0  0  0  0  0
   -4.6866   -3.7946  -14.4229 H   0  0  0  0  0  0  0  0  0  0  0  0
   -3.3578   -2.5859  -14.4229 H   0  0  0  0  0  0  0  0  0  0  0  0
   -4.2049   -2.1211  -16.7528 H   0  0  0  0  0  0  0  0  0  0  0  0
   -5.6049   -0.5759  -18.0920 H   0  0  0  0  0  0  0  0  0  0  0  0
   -8.5000    0.4390  -17.6800 H   0  0  0  0  0  0  0  0  0  0  0  0
   -6.3845    4.8873  -18.5597 H   0  0  0  0  0  0  0  0  0  0  0  0
   -8.2494    6.0095  -17.3876 H   0  0  0  0  0  0  0  0  0  0  0  0
  -11.4194    6.3390  -16.2069 H   0  0  0  0  0  0  0  0  0  0  0  0
  -10.1426    6.1857  -17.4610 H   0  0  0  0  0  0  0  0  0  0  0  0
  -11.5414    5.0588  -17.4610 H   0  0  0  0  0  0  0  0  0  0  0  0
  -12.6786    5.1760  -15.1921 H   0  0  0  0  0  0  0  0  0  0  0  0
  -14.0437    4.0029  -13.3997 H   0  0  0  0  0  0  0  0  0  0  0  0
  -13.9063    1.8547  -10.1831 H   0  0  0  0  0  0  0  0  0  0  0  0
  -14.6944    2.7090  -11.5527 H   0  0  0  0  0  0  0  0  0  0  0  0
  -14.5912    0.9157  -11.5527 H   0  0  0  0  0  0  0  0  0  0  0  0
  -11.6925    0.4917   -9.6863 H   0  0  0  0  0  0  0  0  0  0  0  0
  -12.5555   -0.6077  -10.8148 H   0  0  0  0  0  0  0  0  0  0  0  0
  -10.7601   -0.5495  -10.8148 H   0  0  0  0  0  0  0  0  0  0  0  0
   -9.1453    2.6852  -14.4596 H   0  0  0  0  0  0  0  0  0  0  0  0
   -8.0046    0.2719  -14.6202 H   0  0  0  0  0  0  0  0  0  0  0  0
   -8.1190    0.3970  -13.2060 H   0  0  0  0  0  0  0  0  0  0  0  0
   -8.1430    0.1020  -11.5210 H   0  0  0  0  0  0  0  0  0  0  0  0
  1  2  1  0
  2  3  1  0
  3  4  2  0
  4  5  1  0
  5  6  1  0
  6  7  1  0
  7  8  2  0
  8  9  1  0
  9 10  2  0
 10 11  1  0
 11 12  1  0
 12 13  1  0
 12 14  1  0
 14 15  1  0
 15 16  2  0
 16 17  1  0
 17 18  2  0
 18 19  1  0
 18 20  1  0
 20 21  1  0
 20 22  1  0
 22 23  2  0
 23 24  1  0
 11 25  2  0
  5 26  2  0
 26 27  1  0
 27 28  1  0
 28 29  1  0
 28 30  2  0
 28 31  2  0
 27  2  2  0
 25  7  1  0
 24 14  2  0
 23 17  1  0
  1 32  1  0
  1 33  1  0
  1 34  1  0
  3 35  1  0
  4 36  1  0
  6 37  1  0
  9 38  1  0
 10 39  1  0
 13 40  1  0
 13 41  1  0
 13 42  1  0
 15 43  1  0
 16 44  1  0
 19 45  1  0
 19 46  1  0
 19 47  1  0
 21 48  1  0
 21 49  1  0
 21 50  1  0
 24 51  1  0
 26 52  1  0
 29 53  1  0
 29 54  1  0
M  END
>  <meeko>  (3) 
{"is_sidechain": false}

>  <vina_affinity_kcal_mol>  (3) 
-9.417

>  <pose_rank>  (3) 
3

$$$$

     RDKit          3D

 54 57  0  0  0  0  0  0  0  0999 V2000
   -3.8900   -2.6080  -16.5140 C   0  0  0  0  0  0  0  0  0  0  0  0
   -4.6120   -1.3130  -16.2780 C   0  0  0  0  0  0  0  0  0  0  0  0
   -5.3200   -0.7380  -17.3430 C   0  0  0  0  0  0  0  0  0  0  0  0
   -6.0300    0.4590  -17.1830 C   0  0  0  0  0  0  0  0  0  0  0  0
   -6.0650    1.1250  -15.9580 C   0  0  0  0  0  0  0  0  0  0  0  0
   -6.7630    2.3150  -15.7350 N   0  0  0  0  0  0  0  0  0  0  0  0
   -7.9120    2.6490  -15.0240 C   0  0  0  0  0  0  0  0  0  0  0  0
   -8.1250    2.2300  -13.7710 N   0  0  0  0  0  0  0  0  0  0  0  0
   -9.2780    2.5970  -13.1910 C   0  0  0  0  0  0  0  0  0  0  0  0
  -10.2190    3.3800  -13.8100 C   0  0  0  0  0  0  0  0  0  0  0  0
   -9.9260    3.7910  -15.0960 C   0  0  0  0  0  0  0  0  0  0  0  0
  -10.8640    4.5980  -15.8050 N   0  0  0  0  0  0  0  0  0  0  0  0
  -12.0380    4.8880  -14.9750 C   0  0  0  0  0  0  0  0  0  0  0  0
  -10.4600    5.6010  -16.7450 C   0  0  0  0  0  0  0  0  0  0  0  0
   -9.9560    6.8890  -16.3290 C   0  0  0  0  0  0  0  0  0  0  0  0
   -9.5600    7.9360  -17.1970 C   0  0  0  0  0  0  0  0  0  0  0  0
   -9.7250    7.5790  -18.5280 C   0  0  0  0  0  0  0  0  0  0  0  0
   -9.4380    8.3630  -19.6200 C   0  0  0  0  0  0  0  0  0  0  0  0
   -8.9030    9.7390  -19.7630 C   0  0  0  0  0  0  0  0  0  0  0  0
   -9.7610    7.5660  -20.6930 N   0  0  0  0  0  0  0  0  0  0  0  0
   -9.6420    7.9080  -22.0920 C   0  0  0  0  0  0  0  0  0  0  0  0
  -10.2460    6.3520  -20.3620 N   0  0  0  0  0  0  0  0  0  0  0  0
  -10.2260    6.3250  -19.0200 C   0  0  0  0  0  0  0  0  0  0  0  0
  -10.6100    5.3060  -18.1330 C   0  0  0  0  0  0  0  0  0  0  0  0
   -8.7800    3.4200  -15.6980 N   0  0  0  0  0  0  0  0  0  0  0  0
   -5.3700    0.5450  -14.8880 C   0  0  0  0  0  0  0  0  0  0  0  0
   -4.6490   -0.6540  -15.0390 C   0  0  0  0  0  0  0  0  0  0  0  0
   -3.8290   -1.2990  -13.6010 S   0  0  0  0  0  0  0  0  0  0  0  0
   -4.0450   -0.0660  -12.4800 N   0  0  0  0  0  0  0  0  0  0  0  0
   -2.4090   -1.3870  -13.8430 O   0  0  0  0  0  0  0  0  0  0  0  0
   -4.5810   -2.4160  -13.0770 O   0  0  0  0  0  0  0  0  0  0  0  0
   -3.6343   -3.0667  -15.5474 H   0  0  0  0  0  0  0  0  0  0  0  0
   -4.5378   -3.2904  -17.0837 H   0  0  0  0  0  0  0  0  0  0  0  0
   -2.9689   -2.4157  -17.0837 H   0  0  0  0  0  0  0  0  0  0  0  0
   -5.3179   -1.2367  -18.3235 H   0  0  0  0  0  0  0  0  0  0  0  0
   -6.5714    0.8827  -18.0417 H   0  0  0  0  0  0  0  0  0  0  0  0
   -6.4450    3.1400  -16.2230 H   0  0  0  0  0  0  0  0  0  0  0  0
   -9.4791    2.2521  -12.1660 H   0  0  0  0  0  0  0  0  0  0  0  0
  -11.1561    3.6652  -13.3095 H   0  0  0  0  0  0  0  0  0  0  0  0
  -11.7617    4.8198  -13.9124 H   0  0  0  0  0  0  0  0  0  0  0  0
  -12.4010    5.9028  -15.1950 H   0  0  0  0  0  0  0  0  0  0  0  0
  -12.8318    4.1589  -15.1950 H   0  0  0  0  0  0  0  0  0  0  0  0
   -9.8727    7.0722  -15.2476 H   0  0  0  0  0  0  0  0  0  0  0  0
   -9.1713    8.9080  -16.8592 H   0  0  0  0  0  0  0  0  0  0  0  0
   -8.7345   10.1723  -18.7661 H   0  0  0  0  0  0  0  0  0  0  0  0
   -7.9518    9.7071  -20.3145 H   0  0  0  0  0  0  0  0  0  0  0  0
   -9.6260   10.3580  -20.3145 H   0  0  0  0  0  0  0  0  0  0  0  0
   -9.2819    8.9430  -22.1871 H   0  0  0  0  0  0  0  0  0  0  0  0
   -8.9285    7.2255  -22.5769 H   0  0  0  0  0  0  0  0  0  0  0  0
  -10.6250    7.8158  -22.5769 H   0  0  0  0  0  0  0  0  0  0  0  0
  -11.0019    4.3408  -18.4862 H   0  0  0  0  0  0  0  0  0  0  0  0
   -5.3886    1.0394  -13.9056 H   0  0  0  0  0  0  0  0  0  0  0  0
   -4.0070    0.8390  -12.9490 H   0  0  0  0  0  0  0  0  0  0  0  0
   -3.3670   -0.1690  -11.7240 H   0  0  0  0  0  0  0  0  0  0  0  0
  1  2  1  0
  2  3  1  0
  3  4  2  0
  4  5  1  0
  5  6  1  0
  6  7  1  0
  7  8  2  0
  8  9  1  0
  9 10  2  0
 10 11  1  0
 11 12  1  0
 12 13  1  0
 12 14  1  0
 14 15  1  0
 15 16  2  0
 16 17  1  0
 17 18  2  0
 18 19  1  0
 18 20  1  0
 20 21  1  0
 20 22  1  0
 22 23  2  0
 23 24  1  0
 11 25  2  0
  5 26  2  0
 26 27  1  0
 27 28  1  0
 28 29  1  0
 28 30  2  0
 28 31  2  0
 27  2  2  0
 25  7  1  0
 24 14  2  0
 23 17  1  0
  1 32  1  0
  1 33  1  0
  1 34  1  0
  3 35  1  0
  4 36  1  0
  6 37  1  0
  9 38  1  0
 10 39  1  0
 13 40  1  0
 13 41  1  0
 13 42  1  0
 15 43  1  0
 16 44  1  0
 19 45  1  0
 19 46  1  0
 19 47  1  0
 21 48  1  0
 21 49  1  0
 21 50  1  0
 24 51  1  0
 26 52  1  0
 29 53  1  0
 29 54  1  0
M  END
>  <meeko>  (4) 
{"is_sidechain": false}

>  <vina_affinity_kcal_mol>  (4) 
-9.313

>  <pose_rank>  (4) 
4

$$$$

     RDKit          3D

 54 57  0  0  0  0  0  0  0  0999 V2000
   -3.5970   -2.9010  -16.2240 C   0  0  0  0  0  0  0  0  0  0  0  0
   -4.5800   -1.7710  -16.3280 C   0  0  0  0  0  0  0  0  0  0  0  0
   -5.8860   -1.9750  -15.8600 C   0  0  0  0  0  0  0  0  0  0  0  0
   -6.8440   -0.9550  -15.9120 C   0  0  0  0  0  0  0  0  0  0  0  0
   -6.5380    0.3060  -16.4260 C   0  0  0  0  0  0  0  0  0  0  0  0
   -7.4480    1.3650  -16.4930 N   0  0  0  0  0  0  0  0  0  0  0  0
   -8.2510    2.0170  -15.5620 C   0  0  0  0  0  0  0  0  0  0  0  0
   -8.1700    1.7680  -14.2490 N   0  0  0  0  0  0  0  0  0  0  0  0
   -9.0090    2.4420  -13.4470 C   0  0  0  0  0  0  0  0  0  0  0  0
   -9.9130    3.3660  -13.9050 C   0  0  0  0  0  0  0  0  0  0  0  0
   -9.9290    3.5850  -15.2680 C   0  0  0  0  0  0  0  0  0  0  0  0
  -10.8520    4.5250  -15.8160 N   0  0  0  0  0  0  0  0  0  0  0  0
  -11.8830    4.8790  -14.8350 C   0  0  0  0  0  0  0  0  0  0  0  0
  -10.4570    5.5370  -16.7490 C   0  0  0  0  0  0  0  0  0  0  0  0
   -9.9810    6.8340  -16.3230 C   0  0  0  0  0  0  0  0  0  0  0  0
   -9.5950    7.8900  -17.1830 C   0  0  0  0  0  0  0  0  0  0  0  0
   -9.7380    7.5350  -18.5170 C   0  0  0  0  0  0  0  0  0  0  0  0
   -9.4530    8.3280  -19.6030 C   0  0  0  0  0  0  0  0  0  0  0  0
   -8.9430    9.7140  -19.7350 C   0  0  0  0  0  0  0  0  0  0  0  0
   -9.7500    7.5290  -20.6830 N   0  0  0  0  0  0  0  0  0  0  0  0
   -9.6220    7.8780  -22.0790 C   0  0  0  0  0  0  0  0  0  0  0  0
  -10.2160    6.3060  -20.3610 N   0  0  0  0  0  0  0  0  0  0  0  0
  -10.2110    6.2730  -19.0190 C   0  0  0  0  0  0  0  0  0  0  0  0
  -10.5860    5.2450  -18.1390 C   0  0  0  0  0  0  0  0  0  0  0  0
   -9.1050    2.9070  -16.0890 N   0  0  0  0  0  0  0  0  0  0  0  0
   -5.2290    0.5170  -16.8790 C   0  0  0  0  0  0  0  0  0  0  0  0
   -4.2600   -0.5020  -16.8380 C   0  0  0  0  0  0  0  0  0  0  0  0
   -2.6300   -0.1020  -17.4220 S   0  0  0  0  0  0  0  0  0  0  0  0
   -2.8420    1.4430  -18.0490 N   0  0  0  0  0  0  0  0  0  0  0  0
   -2.2860   -0.9510  -18.5370 O   0  0  0  0  0  0  0  0  0  0  0  0
   -1.7420    0.0700  -16.2960 O   0  0  0  0  0  0  0  0  0  0  0  0
   -3.4041   -3.1228  -15.1640 H   0  0  0  0  0  0  0  0  0  0  0  0
   -4.0110   -3.7936  -16.7159 H   0  0  0  0  0  0  0  0  0  0  0  0
   -2.6557   -2.6146  -16.7159 H   0  0  0  0  0  0  0  0  0  0  0  0
   -6.1632   -2.9549  -15.4441 H   0  0  0  0  0  0  0  0  0  0  0  0
   -7.8601   -1.1519  -15.5395 H   0  0  0  0  0  0  0  0  0  0  0  0
   -7.6560    1.7420  -17.4060 H   0  0  0  0  0  0  0  0  0  0  0  0
   -8.9695    2.2429  -12.3659 H   0  0  0  0  0  0  0  0  0  0  0  0
  -10.5887    3.9035  -13.2234 H   0  0  0  0  0  0  0  0  0  0  0  0
  -11.4846    4.7422  -13.8188 H   0  0  0  0  0  0  0  0  0  0  0  0
  -12.1772    5.9296  -14.9752 H   0  0  0  0  0  0  0  0  0  0  0  0
  -12.7605    4.2307  -14.9752 H   0  0  0  0  0  0  0  0  0  0  0  0
   -9.9131    7.0153  -15.2402 H   0  0  0  0  0  0  0  0  0  0  0  0
   -9.2282    8.8679  -16.8378 H   0  0  0  0  0  0  0  0  0  0  0  0
   -8.7850   10.1434  -18.7347 H   0  0  0  0  0  0  0  0  0  0  0  0
   -7.9899    9.7033  -20.2841 H   0  0  0  0  0  0  0  0  0  0  0  0
   -9.6757   10.3236  -20.2841 H   0  0  0  0  0  0  0  0  0  0  0  0
   -9.2444    8.9075  -22.1665 H   0  0  0  0  0  0  0  0  0  0  0  0
   -8.9188    7.1869  -22.5668 H   0  0  0  0  0  0  0  0  0  0  0  0
  -10.6053    7.8054  -22.5668 H   0  0  0  0  0  0  0  0  0  0  0  0
  -10.9565    4.2741  -18.4996 H   0  0  0  0  0  0  0  0  0  0  0  0
   -4.9520    1.5045  -17.2768 H   0  0  0  0  0  0  0  0  0  0  0  0
   -3.8370    1.6350  -18.1670 H   0  0  0  0  0  0  0  0  0  0  0  0
   -2.2960    1.5420  -18.9050 H   0  0  0  0  0  0  0  0  0  0  0  0
  1  2  1  0
  2  3  1  0
  3  4  2  0
  4  5  1  0
  5  6  1  0
  6  7  1  0
  7  8  2  0
  8  9  1  0
  9 10  2  0
 10 11  1  0
 11 12  1  0
 12 13  1  0
 12 14  1  0
 14 15  1  0
 15 16  2  0
 16 17  1  0
 17 18  2  0
 18 19  1  0
 18 20  1  0
 20 21  1  0
 20 22  1  0
 22 23  2  0
 23 24  1  0
 11 25  2  0
  5 26  2  0
 26 27  1  0
 27 28  1  0
 28 29  1  0
 28 30  2  0
 28 31  2  0
 27  2  2  0
 25  7  1  0
 24 14  2  0
 23 17  1  0
  1 32  1  0
  1 33  1  0
  1 34  1  0
  3 35  1  0
  4 36  1  0
  6 37  1  0
  9 38  1  0
 10 39  1  0
 13 40  1  0
 13 41  1  0
 13 42  1  0
 15 43  1  0
 16 44  1  0
 19 45  1  0
 19 46  1  0
 19 47  1  0
 21 48  1  0
 21 49  1  0
 21 50  1  0
 24 51  1  0
 26 52  1  0
 29 53  1  0
 29 54  1  0
M  END
>  <meeko>  (5) 
{"is_sidechain": false}

>  <vina_affinity_kcal_mol>  (5) 
-9.283

>  <pose_rank>  (5) 
5

$$$$

     RDKit          3D

 54 57  0  0  0  0  0  0  0  0999 V2000
   -6.3000   -0.6220  -13.0800 C   0  0  0  0  0  0  0  0  0  0  0  0
   -6.7170    0.3390  -14.1560 C   0  0  0  0  0  0  0  0  0  0  0  0
   -7.2920    1.5600  -13.7760 C   0  0  0  0  0  0  0  0  0  0  0  0
   -7.6860    2.5060  -14.7300 C   0  0  0  0  0  0  0  0  0  0  0  0
   -7.5170    2.2760  -16.0960 C   0  0  0  0  0  0  0  0  0  0  0  0
   -7.8790    3.1870  -17.0930 N   0  0  0  0  0  0  0  0  0  0  0  0
   -8.5420    4.4100  -17.0970 C   0  0  0  0  0  0  0  0  0  0  0  0
   -7.9980    5.5160  -17.6180 N   0  0  0  0  0  0  0  0  0  0  0  0
   -8.7220    6.6440  -17.5480 C   0  0  0  0  0  0  0  0  0  0  0  0
   -9.9740    6.7050  -16.9920 C   0  0  0  0  0  0  0  0  0  0  0  0
  -10.4810    5.5230  -16.4900 C   0  0  0  0  0  0  0  0  0  0  0  0
  -11.7740    5.5130  -15.8870 N   0  0  0  0  0  0  0  0  0  0  0  0
  -12.8050    5.9030  -16.8540 C   0  0  0  0  0  0  0  0  0  0  0  0
  -12.1440    4.5690  -14.8760 C   0  0  0  0  0  0  0  0  0  0  0  0
  -13.4710    4.5310  -14.3050 C   0  0  0  0  0  0  0  0  0  0  0  0
  -13.9040    3.6460  -13.2890 C   0  0  0  0  0  0  0  0  0  0  0  0
  -12.8790    2.8000  -12.8850 C   0  0  0  0  0  0  0  0  0  0  0  0
  -12.9660    1.8260  -11.9190 C   0  0  0  0  0  0  0  0  0  0  0  0
  -14.0700    1.3680  -11.0420 C   0  0  0  0  0  0  0  0  0  0  0  0
  -11.7070    1.2710  -11.8970 N   0  0  0  0  0  0  0  0  0  0  0  0
  -11.2530    0.1880  -11.0560 C   0  0  0  0  0  0  0  0  0  0  0  0
  -10.8340    1.8320  -12.7580 N   0  0  0  0  0  0  0  0  0  0  0  0
  -11.5360    2.7810  -13.3960 C   0  0  0  0  0  0  0  0  0  0  0  0
  -11.1380    3.6740  -14.4050 C   0  0  0  0  0  0  0  0  0  0  0  0
   -9.7620    4.3840  -16.5390 N   0  0  0  0  0  0  0  0  0  0  0  0
   -6.9280    1.0630  -16.4780 C   0  0  0  0  0  0  0  0  0  0  0  0
   -6.5350    0.1020  -15.5290 C   0  0  0  0  0  0  0  0  0  0  0  0
   -5.7790   -1.3860  -16.1390 S   0  0  0  0  0  0  0  0  0  0  0  0
   -5.6780   -1.0870  -17.7890 N   0  0  0  0  0  0  0  0  0  0  0  0
   -6.6850   -2.4980  -15.9800 O   0  0  0  0  0  0  0  0  0  0  0  0
   -4.4080   -1.4520  -15.6870 O   0  0  0  0  0  0  0  0  0  0  0  0
   -6.4940   -0.1750  -12.0938 H   0  0  0  0  0  0  0  0  0  0  0  0
   -6.8742   -1.5550  -13.1790 H   0  0  0  0  0  0  0  0  0  0  0  0
   -5.2264   -0.8400  -13.1790 H   0  0  0  0  0  0  0  0  0  0  0  0
   -7.4363    1.7789  -12.7077 H   0  0  0  0  0  0  0  0  0  0  0  0
   -8.1386    3.4511  -14.3955 H   0  0  0  0  0  0  0  0  0  0  0  0
   -7.6990    2.9230  -18.0510 H   0  0  0  0  0  0  0  0  0  0  0  0
   -8.2883    7.5680  -17.9581 H   0  0  0  0  0  0  0  0  0  0  0  0
  -10.5437    7.6450  -16.9483 H   0  0  0  0  0  0  0  0  0  0  0  0
  -13.7025    6.2425  -16.3162 H   0  0  0  0  0  0  0  0  0  0  0  0
  -12.4252    6.7196  -17.4856 H   0  0  0  0  0  0  0  0  0  0  0  0
  -13.0607    5.0395  -17.4856 H   0  0  0  0  0  0  0  0  0  0  0  0
  -14.2068    5.2508  -14.6929 H   0  0  0  0  0  0  0  0  0  0  0  0
  -14.9220    3.6301  -12.8725 H   0  0  0  0  0  0  0  0  0  0  0  0
  -13.7764    1.4898   -9.9889 H   0  0  0  0  0  0  0  0  0  0  0  0
  -14.9706    1.9668  -11.2432 H   0  0  0  0  0  0  0  0  0  0  0  0
  -14.2822    0.3076  -11.2432 H   0  0  0  0  0  0  0  0  0  0  0  0
  -11.3712    0.4700   -9.9993 H   0  0  0  0  0  0  0  0  0  0  0  0
  -11.8493   -0.7126  -11.2641 H   0  0  0  0  0  0  0  0  0  0  0  0
  -10.1927   -0.0181  -11.2641 H   0  0  0  0  0  0  0  0  0  0  0  0
  -10.1141    3.6825  -14.8069 H   0  0  0  0  0  0  0  0  0  0  0  0
   -6.7690    0.8573  -17.5468 H   0  0  0  0  0  0  0  0  0  0  0  0
   -4.7100   -1.1710  -18.0970 H   0  0  0  0  0  0  0  0  0  0  0  0
   -6.1030   -0.1830  -17.9990 H   0  0  0  0  0  0  0  0  0  0  0  0
  1  2  1  0
  2  3  1  0
  3  4  2  0
  4  5  1  0
  5  6  1  0
  6  7  1  0
  7  8  2  0
  8  9  1  0
  9 10  2  0
 10 11  1  0
 11 12  1  0
 12 13  1  0
 12 14  1  0
 14 15  1  0
 15 16  2  0
 16 17  1  0
 17 18  2  0
 18 19  1  0
 18 20  1  0
 20 21  1  0
 20 22  1  0
 22 23  2  0
 23 24  1  0
 11 25  2  0
  5 26  2  0
 26 27  1  0
 27 28  1  0
 28 29  1  0
 28 30  2  0
 28 31  2  0
 27  2  2  0
 25  7  1  0
 24 14  2  0
 23 17  1  0
  1 32  1  0
  1 33  1  0
  1 34  1  0
  3 35  1  0
  4 36  1  0
  6 37  1  0
  9 38  1  0
 10 39  1  0
 13 40  1  0
 13 41  1  0
 13 42  1  0
 15 43  1  0
 16 44  1  0
 19 45  1  0
 19 46  1  0
 19 47  1  0
 21 48  1  0
 21 49  1  0
 21 50  1  0
 24 51  1  0
 26 52  1  0
 29 53  1  0
 29 54  1  0
M  END
>  <meeko>  (6) 
{"is_sidechain": false}

>  <vina_affinity_kcal_mol>  (6) 
-9.205

>  <pose_rank>  (6) 
6

$$$$

     RDKit          3D

 54 57  0  0  0  0  0  0  0  0999 V2000
  -14.6000    0.0430   -7.5930 C   0  0  0  0  0  0  0  0  0  0  0  0
  -13.9010    0.4060   -8.8710 C   0  0  0  0  0  0  0  0  0  0  0  0
  -14.6200    1.1030   -9.8520 C   0  0  0  0  0  0  0  0  0  0  0  0
  -14.0200    1.4860  -11.0590 C   0  0  0  0  0  0  0  0  0  0  0  0
  -12.6830    1.1950  -11.3310 C   0  0  0  0  0  0  0  0  0  0  0  0
  -12.0280    1.5610  -12.5100 N   0  0  0  0  0  0  0  0  0  0  0  0
  -12.0990    2.6590  -13.3610 C   0  0  0  0  0  0  0  0  0  0  0  0
  -13.1930    3.4260  -13.4490 N   0  0  0  0  0  0  0  0  0  0  0  0
  -13.1550    4.4460  -14.3200 C   0  0  0  0  0  0  0  0  0  0  0  0
  -12.0620    4.7400  -15.0930 C   0  0  0  0  0  0  0  0  0  0  0  0
  -10.9620    3.9190  -14.9380 C   0  0  0  0  0  0  0  0  0  0  0  0
   -9.7920    4.1580  -15.7180 N   0  0  0  0  0  0  0  0  0  0  0  0
   -9.1390    2.8960  -16.0830 C   0  0  0  0  0  0  0  0  0  0  0  0
   -9.6980    5.2400  -16.6510 C   0  0  0  0  0  0  0  0  0  0  0  0
   -9.4640    6.6030  -16.2300 C   0  0  0  0  0  0  0  0  0  0  0  0
   -9.3820    7.7250  -17.0890 C   0  0  0  0  0  0  0  0  0  0  0  0
   -9.5670    7.3620  -18.4160 C   0  0  0  0  0  0  0  0  0  0  0  0
   -9.5490    8.2090  -19.4990 C   0  0  0  0  0  0  0  0  0  0  0  0
   -9.3490    9.6710  -19.6340 C   0  0  0  0  0  0  0  0  0  0  0  0
   -9.7690    7.3770  -20.5720 N   0  0  0  0  0  0  0  0  0  0  0  0
   -9.8400    7.7590  -21.9630 C   0  0  0  0  0  0  0  0  0  0  0  0
   -9.9420    6.0790  -20.2470 N   0  0  0  0  0  0  0  0  0  0  0  0
   -9.8120    6.0350  -18.9120 C   0  0  0  0  0  0  0  0  0  0  0  0
   -9.8870    4.9420  -18.0330 C   0  0  0  0  0  0  0  0  0  0  0  0
  -10.9880    2.8810  -14.0800 N   0  0  0  0  0  0  0  0  0  0  0  0
  -11.9580    0.5110  -10.3460 C   0  0  0  0  0  0  0  0  0  0  0  0
  -12.5520    0.1150   -9.1330 C   0  0  0  0  0  0  0  0  0  0  0  0
  -11.5210   -0.7260   -7.9560 S   0  0  0  0  0  0  0  0  0  0  0  0
  -10.0350   -0.7610   -8.7400 N   0  0  0  0  0  0  0  0  0  0  0  0
  -11.9450   -2.0980   -7.8230 O   0  0  0  0  0  0  0  0  0  0  0  0
  -11.3140    0.1210   -6.8030 O   0  0  0  0  0  0  0  0  0  0  0  0
  -13.9872    0.3612   -6.7367 H   0  0  0  0  0  0  0  0  0  0  0  0
  -15.5764    0.5480   -7.5529 H   0  0  0  0  0  0  0  0  0  0  0  0
  -14.7486   -1.0462   -7.5529 H   0  0  0  0  0  0  0  0  0  0  0  0
  -15.6755    1.3541   -9.6708 H   0  0  0  0  0  0  0  0  0  0  0  0
  -14.6160    2.0278  -11.8082 H   0  0  0  0  0  0  0  0  0  0  0  0
  -11.3920    0.8890  -12.9170 H   0  0  0  0  0  0  0  0  0  0  0  0
  -14.0485    5.0799  -14.4189 H   0  0  0  0  0  0  0  0  0  0  0  0
  -12.0608    5.5839  -15.7985 H   0  0  0  0  0  0  0  0  0  0  0  0
   -8.8572    2.3514  -15.1697 H   0  0  0  0  0  0  0  0  0  0  0  0
   -9.8328    2.2824  -16.6765 H   0  0  0  0  0  0  0  0  0  0  0  0
   -8.2374    3.1079  -16.6765 H   0  0  0  0  0  0  0  0  0  0  0  0
   -9.3392    6.7832  -15.1521 H   0  0  0  0  0  0  0  0  0  0  0  0
   -9.1953    8.7541  -16.7482 H   0  0  0  0  0  0  0  0  0  0  0  0
   -9.2867   10.1264  -18.6346 H   0  0  0  0  0  0  0  0  0  0  0  0
   -8.4161    9.8642  -20.1838 H   0  0  0  0  0  0  0  0  0  0  0  0
  -10.1958   10.1077  -20.1838 H   0  0  0  0  0  0  0  0  0  0  0  0
  -10.0406    8.8380  -22.0371 H   0  0  0  0  0  0  0  0  0  0  0  0
   -8.8837    7.5291  -22.4557 H   0  0  0  0  0  0  0  0  0  0  0  0
  -10.6498    7.2008  -22.4557 H   0  0  0  0  0  0  0  0  0  0  0  0
  -10.0797    3.9190  -18.3886 H   0  0  0  0  0  0  0  0  0  0  0  0
  -10.8981    0.2777  -10.5253 H   0  0  0  0  0  0  0  0  0  0  0  0
   -9.7680   -1.7260   -8.9320 H   0  0  0  0  0  0  0  0  0  0  0  0
   -9.3470   -0.2420   -8.1920 H   0  0  0  0  0  0  0  0  0  0  0  0
  1  2  1  0
  2  3  1  0
  3  4  2  0
  4  5  1  0
  5  6  1  0
  6  7  1  0
  7  8  2  0
  8  9  1  0
  9 10  2  0
 10 11  1  0
 11 12  1  0
 12 13  1  0
 12 14  1  0
 14 15  1  0
 15 16  2  0
 16 17  1  0
 17 18  2  0
 18 19  1  0
 18 20  1  0
 20 21  1  0
 20 22  1  0
 22 23  2  0
 23 24  1  0
 11 25  2  0
  5 26  2  0
 26 27  1  0
 27 28  1  0
 28 29  1  0
 28 30  2  0
 28 31  2  0
 27  2  2  0
 25  7  1  0
 24 14  2  0
 23 17  1  0
  1 32  1  0
  1 33  1  0
  1 34  1  0
  3 35  1  0
  4 36  1  0
  6 37  1  0
  9 38  1  0
 10 39  1  0
 13 40  1  0
 13 41  1  0
 13 42  1  0
 15 43  1  0
 16 44  1  0
 19 45  1  0
 19 46  1  0
 19 47  1  0
 21 48  1  0
 21 49  1  0
 21 50  1  0
 24 51  1  0
 26 52  1  0
 29 53  1  0
 29 54  1  0
M  END
>  <meeko>  (7) 
{"is_sidechain": false}

>  <vina_affinity_kcal_mol>  (7) 
-9.196

>  <pose_rank>  (7) 
7

$$$$

     RDKit          3D

 54 57  0  0  0  0  0  0  0  0999 V2000
   -8.6460   -2.5990   -9.6230 C   0  0  0  0  0  0  0  0  0  0  0  0
   -7.8890   -1.8870  -10.7070 C   0  0  0  0  0  0  0  0  0  0  0  0
   -6.4910   -1.8270  -10.6180 C   0  0  0  0  0  0  0  0  0  0  0  0
   -5.7270   -1.1940  -11.6060 C   0  0  0  0  0  0  0  0  0  0  0  0
   -6.3230   -0.6020  -12.7200 C   0  0  0  0  0  0  0  0  0  0  0  0
   -5.6120    0.0330  -13.7410 N   0  0  0  0  0  0  0  0  0  0  0  0
   -5.9230    0.4380  -15.0360 C   0  0  0  0  0  0  0  0  0  0  0  0
   -5.5710   -0.2760  -16.1120 N   0  0  0  0  0  0  0  0  0  0  0  0
   -5.9070    0.2220  -17.3120 C   0  0  0  0  0  0  0  0  0  0  0  0
   -6.5930    1.3980  -17.4770 C   0  0  0  0  0  0  0  0  0  0  0  0
   -6.9400    2.0730  -16.3230 C   0  0  0  0  0  0  0  0  0  0  0  0
   -7.6460    3.3090  -16.4190 N   0  0  0  0  0  0  0  0  0  0  0  0
   -7.3770    3.9680  -17.7010 C   0  0  0  0  0  0  0  0  0  0  0  0
   -8.9430    3.5010  -15.8410 C   0  0  0  0  0  0  0  0  0  0  0  0
   -9.8080    4.5900  -16.2330 C   0  0  0  0  0  0  0  0  0  0  0  0
  -11.0890    4.8570  -15.6930 C   0  0  0  0  0  0  0  0  0  0  0  0
  -11.4250    3.9360  -14.7100 C   0  0  0  0  0  0  0  0  0  0  0  0
  -12.5950    3.9120  -13.9880 C   0  0  0  0  0  0  0  0  0  0  0  0
  -13.8010    4.7730  -13.9900 C   0  0  0  0  0  0  0  0  0  0  0  0
  -12.4500    2.8210  -13.1620 N   0  0  0  0  0  0  0  0  0  0  0  0
  -13.4060    2.3370  -12.1930 C   0  0  0  0  0  0  0  0  0  0  0  0
  -11.2770    2.1710  -13.2960 N   0  0  0  0  0  0  0  0  0  0  0  0
  -10.6190    2.8340  -14.2600 C   0  0  0  0  0  0  0  0  0  0  0  0
   -9.3520    2.5960  -14.8170 C   0  0  0  0  0  0  0  0  0  0  0  0
   -6.5990    1.5950  -15.1110 N   0  0  0  0  0  0  0  0  0  0  0  0
   -7.7190   -0.6740  -12.8180 C   0  0  0  0  0  0  0  0  0  0  0  0
   -8.4980   -1.3020  -11.8290 C   0  0  0  0  0  0  0  0  0  0  0  0
  -10.2560   -1.3460  -12.0810 S   0  0  0  0  0  0  0  0  0  0  0  0
  -10.4160   -0.6780  -13.6150 N   0  0  0  0  0  0  0  0  0  0  0  0
  -10.9070   -0.4360  -11.1700 O   0  0  0  0  0  0  0  0  0  0  0  0
  -10.6890   -2.7180  -12.2250 O   0  0  0  0  0  0  0  0  0  0  0  0
   -8.2855   -2.2599   -8.6406 H   0  0  0  0  0  0  0  0  0  0  0  0
   -9.7188   -2.3751   -9.7172 H   0  0  0  0  0  0  0  0  0  0  0  0
   -8.4882   -3.6835   -9.7172 H   0  0  0  0  0  0  0  0  0  0  0  0
   -5.9849   -2.2858   -9.7558 H   0  0  0  0  0  0  0  0  0  0  0  0
   -4.6324   -1.1627  -11.5016 H   0  0  0  0  0  0  0  0  0  0  0  0
   -4.6290    0.2090  -13.5850 H   0  0  0  0  0  0  0  0  0  0  0  0
   -5.6170   -0.3426  -18.2104 H   0  0  0  0  0  0  0  0  0  0  0  0
   -6.8528    1.7828  -18.4742 H   0  0  0  0  0  0  0  0  0  0  0  0
   -6.9671    4.9723  -17.5181 H   0  0  0  0  0  0  0  0  0  0  0  0
   -6.6495    3.3736  -18.2733 H   0  0  0  0  0  0  0  0  0  0  0  0
   -8.3126    4.0525  -18.2733 H   0  0  0  0  0  0  0  0  0  0  0  0
   -9.4402    5.2685  -17.0168 H   0  0  0  0  0  0  0  0  0  0  0  0
  -11.7355    5.6880  -16.0115 H   0  0  0  0  0  0  0  0  0  0  0  0
  -14.1006    4.9869  -12.9534 H   0  0  0  0  0  0  0  0  0  0  0  0
  -13.5770    5.7166  -14.5090 H   0  0  0  0  0  0  0  0  0  0  0  0
  -14.6207    4.2547  -14.5090 H   0  0  0  0  0  0  0  0  0  0  0  0
  -13.0280    2.5284  -11.1779 H   0  0  0  0  0  0  0  0  0  0  0  0
  -14.3646    2.8584  -12.3317 H   0  0  0  0  0  0  0  0  0  0  0  0
  -13.5533    1.2558  -12.3317 H   0  0  0  0  0  0  0  0  0  0  0  0
   -8.7146    1.7635  -14.4843 H   0  0  0  0  0  0  0  0  0  0  0  0
   -8.2186   -0.2280  -13.6906 H   0  0  0  0  0  0  0  0  0  0  0  0
   -9.7550   -1.1180  -14.2550 H   0  0  0  0  0  0  0  0  0  0  0  0
  -10.3230    0.3370  -13.5570 H   0  0  0  0  0  0  0  0  0  0  0  0
  1  2  1  0
  2  3  1  0
  3  4  2  0
  4  5  1  0
  5  6  1  0
  6  7  1  0
  7  8  2  0
  8  9  1  0
  9 10  2  0
 10 11  1  0
 11 12  1  0
 12 13  1  0
 12 14  1  0
 14 15  1  0
 15 16  2  0
 16 17  1  0
 17 18  2  0
 18 19  1  0
 18 20  1  0
 20 21  1  0
 20 22  1  0
 22 23  2  0
 23 24  1  0
 11 25  2  0
  5 26  2  0
 26 27  1  0
 27 28  1  0
 28 29  1  0
 28 30  2  0
 28 31  2  0
 27  2  2  0
 25  7  1  0
 24 14  2  0
 23 17  1  0
  1 32  1  0
  1 33  1  0
  1 34  1  0
  3 35  1  0
  4 36  1  0
  6 37  1  0
  9 38  1  0
 10 39  1  0
 13 40  1  0
 13 41  1  0
 13 42  1  0
 15 43  1  0
 16 44  1  0
 19 45  1  0
 19 46  1  0
 19 47  1  0
 21 48  1  0
 21 49  1  0
 21 50  1  0
 24 51  1  0
 26 52  1  0
 29 53  1  0
 29 54  1  0
M  END
>  <meeko>  (8) 
{"is_sidechain": false}

>  <vina_affinity_kcal_mol>  (8) 
-9.019

>  <pose_rank>  (8) 
8

$$$$

     RDKit          3D

 54 57  0  0  0  0  0  0  0  0999 V2000
  -13.4420    1.6960  -11.7860 C   0  0  0  0  0  0  0  0  0  0  0  0
  -12.7290    2.4750  -12.8530 C   0  0  0  0  0  0  0  0  0  0  0  0
  -13.3050    3.6690  -13.3080 C   0  0  0  0  0  0  0  0  0  0  0  0
  -12.6810    4.4510  -14.2880 C   0  0  0  0  0  0  0  0  0  0  0  0
  -11.4580    4.0770  -14.8470 C   0  0  0  0  0  0  0  0  0  0  0  0
  -10.7830    4.8210  -15.8180 N   0  0  0  0  0  0  0  0  0  0  0  0
   -9.5850    4.6600  -16.5080 C   0  0  0  0  0  0  0  0  0  0  0  0
   -8.9580    5.6830  -17.1010 N   0  0  0  0  0  0  0  0  0  0  0  0
   -7.8200    5.4050  -17.7560 C   0  0  0  0  0  0  0  0  0  0  0  0
   -7.2770    4.1480  -17.8270 C   0  0  0  0  0  0  0  0  0  0  0  0
   -7.9680    3.1440  -17.1780 C   0  0  0  0  0  0  0  0  0  0  0  0
   -7.4670    1.8080  -17.2190 N   0  0  0  0  0  0  0  0  0  0  0  0
   -6.8390    1.5250  -18.5140 C   0  0  0  0  0  0  0  0  0  0  0  0
   -6.9220    1.1550  -16.0670 C   0  0  0  0  0  0  0  0  0  0  0  0
   -6.1230    1.8570  -15.0890 C   0  0  0  0  0  0  0  0  0  0  0  0
   -5.5320    1.2770  -13.9410 C   0  0  0  0  0  0  0  0  0  0  0  0
   -5.8060   -0.0820  -13.8630 C   0  0  0  0  0  0  0  0  0  0  0  0
   -5.3820   -0.9400  -12.8760 C   0  0  0  0  0  0  0  0  0  0  0  0
   -4.5590   -0.7500  -11.6580 C   0  0  0  0  0  0  0  0  0  0  0  0
   -5.9150   -2.1540  -13.2430 N   0  0  0  0  0  0  0  0  0  0  0  0
   -5.7770   -3.4080  -12.5390 C   0  0  0  0  0  0  0  0  0  0  0  0
   -6.6220   -2.1300  -14.3910 N   0  0  0  0  0  0  0  0  0  0  0  0
   -6.5820   -0.8520  -14.7970 C   0  0  0  0  0  0  0  0  0  0  0  0
   -7.1560   -0.2450  -15.9270 C   0  0  0  0  0  0  0  0  0  0  0  0
   -9.1190    3.4020  -16.5280 N   0  0  0  0  0  0  0  0  0  0  0  0
  -10.8720    2.8920  -14.3830 C   0  0  0  0  0  0  0  0  0  0  0  0
  -11.4930    2.0950  -13.4040 C   0  0  0  0  0  0  0  0  0  0  0  0
  -10.6380    0.6280  -12.8820 S   0  0  0  0  0  0  0  0  0  0  0  0
   -9.0370    1.1390  -12.8450 N   0  0  0  0  0  0  0  0  0  0  0  0
  -10.7210   -0.3810  -13.9110 O   0  0  0  0  0  0  0  0  0  0  0  0
  -10.9690    0.3390  -11.5060 O   0  0  0  0  0  0  0  0  0  0  0  0
  -13.1185    2.0495  -10.7959 H   0  0  0  0  0  0  0  0  0  0  0  0
  -14.5275    1.8403  -11.8902 H   0  0  0  0  0  0  0  0  0  0  0  0
  -13.2025    0.6275  -11.8902 H   0  0  0  0  0  0  0  0  0  0  0  0
  -14.2664    3.9984  -12.8870 H   0  0  0  0  0  0  0  0  0  0  0  0
  -13.1650    5.3797  -14.6243 H   0  0  0  0  0  0  0  0  0  0  0  0
  -11.1740    5.7180  -16.0730 H   0  0  0  0  0  0  0  0  0  0  0  0
   -7.2955    6.2287  -18.2624 H   0  0  0  0  0  0  0  0  0  0  0  0
   -6.3418    3.9501  -18.3713 H   0  0  0  0  0  0  0  0  0  0  0  0
   -5.8472    1.0781  -18.3507 H   0  0  0  0  0  0  0  0  0  0  0  0
   -7.4684    0.8235  -19.0812 H   0  0  0  0  0  0  0  0  0  0  0  0
   -6.7304    2.4612  -19.0812 H   0  0  0  0  0  0  0  0  0  0  0  0
   -5.9603    2.9329  -15.2502 H   0  0  0  0  0  0  0  0  0  0  0  0
   -4.9322    1.8320  -13.2046 H   0  0  0  0  0  0  0  0  0  0  0  0
   -5.1858   -0.8947  -10.7657 H   0  0  0  0  0  0  0  0  0  0  0  0
   -3.7382   -1.4823  -11.6522 H   0  0  0  0  0  0  0  0  0  0  0  0
   -4.1422    0.2680  -11.6522 H   0  0  0  0  0  0  0  0  0  0  0  0
   -5.7973   -3.2239  -11.4547 H   0  0  0  0  0  0  0  0  0  0  0  0
   -6.6071   -4.0757  -12.8131 H   0  0  0  0  0  0  0  0  0  0  0  0
   -4.8216   -3.8792  -12.8131 H   0  0  0  0  0  0  0  0  0  0  0  0
   -7.7489   -0.8142  -16.6581 H   0  0  0  0  0  0  0  0  0  0  0  0
   -9.9018    2.5768  -14.7946 H   0  0  0  0  0  0  0  0  0  0  0  0
   -8.9820    2.1230  -13.1090 H   0  0  0  0  0  0  0  0  0  0  0  0
   -8.4680    0.5220  -13.4260 H   0  0  0  0  0  0  0  0  0  0  0  0
  1  2  1  0
  2  3  1  0
  3  4  2  0
  4  5  1  0
  5  6  1  0
  6  7  1  0
  7  8  2  0
  8  9  1  0
  9 10  2  0
 10 11  1  0
 11 12  1  0
 12 13  1  0
 12 14  1  0
 14 15  1  0
 15 16  2  0
 16 17  1  0
 17 18  2  0
 18 19  1  0
 18 20  1  0
 20 21  1  0
 20 22  1  0
 22 23  2  0
 23 24  1  0
 11 25  2  0
  5 26  2  0
 26 27  1  0
 27 28  1  0
 28 29  1  0
 28 30  2  0
 28 31  2  0
 27  2  2  0
 25  7  1  0
 24 14  2  0
 23 17  1  0
  1 32  1  0
  1 33  1  0
  1 34  1  0
  3 35  1  0
  4 36  1  0
  6 37  1  0
  9 38  1  0
 10 39  1  0
 13 40  1  0
 13 41  1  0
 13 42  1  0
 15 43  1  0
 16 44  1  0
 19 45  1  0
 19 46  1  0
 19 47  1  0
 21 48  1  0
 21 49  1  0
 21 50  1  0
 24 51  1  0
 26 52  1  0
 29 53  1  0
 29 54  1  0
M  END
>  <meeko>  (9) 
{"is_sidechain": false}

>  <vina_affinity_kcal_mol>  (9) 
-8.956

>  <pose_rank>  (9) 
9

$$$$

     RDKit          3D

 54 57  0  0  0  0  0  0  0  0999 V2000
  -11.9880    1.0440  -11.9600 C   0  0  0  0  0  0  0  0  0  0  0  0
  -11.6240    2.0440  -13.0190 C   0  0  0  0  0  0  0  0  0  0  0  0
  -12.2690    3.2890  -13.0130 C   0  0  0  0  0  0  0  0  0  0  0  0
  -11.9620    4.2720  -13.9620 C   0  0  0  0  0  0  0  0  0  0  0  0
  -10.9980    4.0550  -14.9480 C   0  0  0  0  0  0  0  0  0  0  0  0
  -10.6410    5.0010  -15.9130 N   0  0  0  0  0  0  0  0  0  0  0  0
   -9.6870    5.0450  -16.9240 C   0  0  0  0  0  0  0  0  0  0  0  0
   -9.9450    5.5680  -18.1290 N   0  0  0  0  0  0  0  0  0  0  0  0
   -8.9540    5.5370  -19.0340 C   0  0  0  0  0  0  0  0  0  0  0  0
   -7.7110    5.0200  -18.7750 C   0  0  0  0  0  0  0  0  0  0  0  0
   -7.5090    4.5140  -17.5060 C   0  0  0  0  0  0  0  0  0  0  0  0
   -6.2420    3.9500  -17.1700 N   0  0  0  0  0  0  0  0  0  0  0  0
   -5.3640    4.9570  -16.5650 C   0  0  0  0  0  0  0  0  0  0  0  0
   -6.0980    2.5970  -16.7210 C   0  0  0  0  0  0  0  0  0  0  0  0
   -6.2740    1.4680  -17.6050 C   0  0  0  0  0  0  0  0  0  0  0  0
   -6.1710    0.1070  -17.2310 C   0  0  0  0  0  0  0  0  0  0  0  0
   -5.8830   -0.0250  -15.8790 C   0  0  0  0  0  0  0  0  0  0  0  0
   -5.7190   -1.2080  -15.1970 C   0  0  0  0  0  0  0  0  0  0  0  0
   -5.7850   -2.6300  -15.6100 C   0  0  0  0  0  0  0  0  0  0  0  0
   -5.4460   -0.8100  -13.9090 N   0  0  0  0  0  0  0  0  0  0  0  0
   -5.1820   -1.6670  -12.7760 C   0  0  0  0  0  0  0  0  0  0  0  0
   -5.4440    0.5260  -13.7250 N   0  0  0  0  0  0  0  0  0  0  0  0
   -5.7030    1.0440  -14.9350 C   0  0  0  0  0  0  0  0  0  0  0  0
   -5.8110    2.3850  -15.3400 C   0  0  0  0  0  0  0  0  0  0  0  0
   -8.4960    4.5230  -16.5900 N   0  0  0  0  0  0  0  0  0  0  0  0
  -10.3400    2.8180  -14.9460 C   0  0  0  0  0  0  0  0  0  0  0  0
  -10.6450    1.8210  -14.0020 C   0  0  0  0  0  0  0  0  0  0  0  0
   -9.7260    0.3030  -14.0910 S   0  0  0  0  0  0  0  0  0  0  0  0
   -8.5280    0.5410  -12.9370 N   0  0  0  0  0  0  0  0  0  0  0  0
   -9.0530    0.2100  -15.3640 O   0  0  0  0  0  0  0  0  0  0  0  0
  -10.5310   -0.7800  -13.5750 O   0  0  0  0  0  0  0  0  0  0  0  0
  -11.8267    1.4872  -10.9662 H   0  0  0  0  0  0  0  0  0  0  0  0
  -13.0460    0.7633  -12.0689 H   0  0  0  0  0  0  0  0  0  0  0  0
  -11.3580    0.1489  -12.0689 H   0  0  0  0  0  0  0  0  0  0  0  0
  -13.0312    3.4977  -12.2478 H   0  0  0  0  0  0  0  0  0  0  0  0
  -12.4917    5.2355  -13.9298 H   0  0  0  0  0  0  0  0  0  0  0  0
  -11.1050    5.8980  -15.8790 H   0  0  0  0  0  0  0  0  0  0  0  0
   -9.1495    5.9478  -20.0355 H   0  0  0  0  0  0  0  0  0  0  0  0
   -6.9175    5.0088  -19.5367 H   0  0  0  0  0  0  0  0  0  0  0  0
   -5.4256    4.8863  -15.4690 H   0  0  0  0  0  0  0  0  0  0  0  0
   -4.3270    4.7797  -16.8861 H   0  0  0  0  0  0  0  0  0  0  0  0
   -5.6809    5.9602  -16.8861 H   0  0  0  0  0  0  0  0  0  0  0  0
   -6.5078    1.6845  -18.6578 H   0  0  0  0  0  0  0  0  0  0  0  0
   -6.3023   -0.7381  -17.9228 H   0  0  0  0  0  0  0  0  0  0  0  0
   -5.8147   -3.2704  -14.7161 H   0  0  0  0  0  0  0  0  0  0  0  0
   -6.6918   -2.7958  -16.2102 H   0  0  0  0  0  0  0  0  0  0  0  0
   -4.8974   -2.8791  -16.2102 H   0  0  0  0  0  0  0  0  0  0  0  0
   -5.3544   -1.1073  -11.8449 H   0  0  0  0  0  0  0  0  0  0  0  0
   -5.8536   -2.5375  -12.8103 H   0  0  0  0  0  0  0  0  0  0  0  0
   -4.1370   -2.0086  -12.8103 H   0  0  0  0  0  0  0  0  0  0  0  0
   -5.6822    3.2199  -14.6355 H   0  0  0  0  0  0  0  0  0  0  0  0
   -9.5653    2.6216  -15.7018 H   0  0  0  0  0  0  0  0  0  0  0  0
   -8.1390    1.4790  -13.0300 H   0  0  0  0  0  0  0  0  0  0  0  0
   -7.8330   -0.2040  -13.0070 H   0  0  0  0  0  0  0  0  0  0  0  0
  1  2  1  0
  2  3  1  0
  3  4  2  0
  4  5  1  0
  5  6  1  0
  6  7  1  0
  7  8  2  0
  8  9  1  0
  9 10  2  0
 10 11  1  0
 11 12  1  0
 12 13  1  0
 12 14  1  0
 14 15  1  0
 15 16  2  0
 16 17  1  0
 17 18  2  0
 18 19  1  0
 18 20  1  0
 20 21  1  0
 20 22  1  0
 22 23  2  0
 23 24  1  0
 11 25  2  0
  5 26  2  0
 26 27  1  0
 27 28  1  0
 28 29  1  0
 28 30  2  0
 28 31  2  0
 27  2  2  0
 25  7  1  0
 24 14  2  0
 23 17  1  0
  1 32  1  0
  1 33  1  0
  1 34  1  0
  3 35  1  0
  4 36  1  0
  6 37  1  0
  9 38  1  0
 10 39  1  0
 13 40  1  0
 13 41  1  0
 13 42  1  0
 15 43  1  0
 16 44  1  0
 19 45  1  0
 19 46  1  0
 19 47  1  0
 21 48  1  0
 21 49  1  0
 21 50  1  0
 24 51  1  0
 26 52  1  0
 29 53  1  0
 29 54  1  0
M  END
>  <meeko>  (10) 
{"is_sidechain": false}

>  <vina_affinity_kcal_mol>  (10) 
-8.902

>  <pose_rank>  (10) 
10

$$$$
