
     RDKit          3D

 56 58  0  0  0  0  0  0  0  0999 V2000
   -8.9190    9.8540  -19.6390 C   0  0  0  0  0  0  0  0  0  0  0  0
   -9.3680    8.5750  -18.9370 C   0  0  0  0  0  0  0  0  0  0  0  0
  -10.0090    7.5950  -19.8300 N   0  0  0  0  0  0  0  0  0  0  0  0
  -10.4120    8.1970  -21.1120 C   0  0  0  0  0  0  0  0  0  0  0  0
  -10.4550    7.1860  -22.2530 C   0  0  0  0  0  0  0  0  0  0  0  0
   -9.2030    6.3740  -20.0400 C   0  0  0  0  0  0  0  0  0  0  0  0
   -8.2950    5.9260  -18.8760 C   0  0  0  0  0  0  0  0  0  0  0  0
   -9.0570    5.4350  -17.7460 N   0  0  0  0  0  0  0  0  0  0  0  0
   -8.6220    4.3740  -16.9850 C   0  0  0  0  0  0  0  0  0  0  0  0
   -7.5740    3.7780  -17.2100 O   0  0  0  0  0  0  0  0  0  0  0  0
   -9.5480    3.9860  -15.9190 C   0  0  0  0  0  0  0  0  0  0  0  0
  -10.7110    4.6760  -15.6130 C   0  0  0  0  0  0  0  0  0  0  0  0
  -11.3070    5.8900  -16.2290 C   0  0  0  0  0  0  0  0  0  0  0  0
  -11.3120    4.0500  -14.5520 N   0  0  0  0  0  0  0  0  0  0  0  0
  -10.5900    2.9510  -14.1590 C   0  0  0  0  0  0  0  0  0  0  0  0
  -10.9960    2.1200  -13.0730 C   0  0  0  0  0  0  0  0  0  0  0  0
  -12.1820    2.0390  -12.4490 C   0  0  0  0  0  0  0  0  0  0  0  0
  -13.4770    2.7870  -12.6680 C   0  0  0  0  0  0  0  0  0  0  0  0
  -13.7210    3.6510  -13.4890 O   0  0  0  0  0  0  0  0  0  0  0  0
  -14.3600    2.2850  -11.7280 N   0  0  0  0  0  0  0  0  0  0  0  0
  -13.7660    1.3080  -10.9410 C   0  0  0  0  0  0  0  0  0  0  0  0
  -14.3600    0.6040   -9.9110 C   0  0  0  0  0  0  0  0  0  0  0  0
  -13.5760   -0.3390   -9.2470 C   0  0  0  0  0  0  0  0  0  0  0  0
  -12.2420   -0.5440   -9.6300 C   0  0  0  0  0  0  0  0  0  0  0  0
  -11.5110   -1.4550   -8.9730 F   0  0  0  0  0  0  0  0  0  0  0  0
  -11.6540    0.1750  -10.6710 C   0  0  0  0  0  0  0  0  0  0  0  0
  -12.4350    1.1100  -11.3280 C   0  0  0  0  0  0  0  0  0  0  0  0
   -9.4950    2.8610  -15.0160 C   0  0  0  0  0  0  0  0  0  0  0  0
   -8.4680    1.7760  -15.0190 C   0  0  0  0  0  0  0  0  0  0  0  0
   -8.6532   10.6112  -18.8867 H   0  0  0  0  0  0  0  0  0  0  0  0
   -8.0427    9.6387  -20.2681 H   0  0  0  0  0  0  0  0  0  0  0  0
   -9.7376   10.2337  -20.2681 H   0  0  0  0  0  0  0  0  0  0  0  0
   -8.4854    8.1023  -18.4814 H   0  0  0  0  0  0  0  0  0  0  0  0
  -10.1228    8.8687  -18.1927 H   0  0  0  0  0  0  0  0  0  0  0  0
  -11.4134    8.6366  -20.9943 H   0  0  0  0  0  0  0  0  0  0  0  0
   -9.6602    8.9569  -21.3715 H   0  0  0  0  0  0  0  0  0  0  0  0
  -10.4983    6.1677  -21.8392 H   0  0  0  0  0  0  0  0  0  0  0  0
  -11.3462    7.3687  -22.8714 H   0  0  0  0  0  0  0  0  0  0  0  0
   -9.5515    7.2924  -22.8714 H   0  0  0  0  0  0  0  0  0  0  0  0
   -9.8990    5.5496  -20.2543 H   0  0  0  0  0  0  0  0  0  0  0  0
   -8.5140    6.6238  -20.8603 H   0  0  0  0  0  0  0  0  0  0  0  0
   -7.6323    5.1235  -19.2321 H   0  0  0  0  0  0  0  0  0  0  0  0
   -7.7190    6.8011  -18.5406 H   0  0  0  0  0  0  0  0  0  0  0  0
  -10.0010    5.7650  -17.6060 H   0  0  0  0  0  0  0  0  0  0  0  0
  -11.6435    6.5754  -15.4372 H   0  0  0  0  0  0  0  0  0  0  0  0
  -10.5531    6.3924  -16.8529 H   0  0  0  0  0  0  0  0  0  0  0  0
  -12.1656    5.6008  -16.8529 H   0  0  0  0  0  0  0  0  0  0  0  0
  -12.1790    4.3660  -14.1270 H   0  0  0  0  0  0  0  0  0  0  0  0
  -10.2194    1.4426  -12.6883 H   0  0  0  0  0  0  0  0  0  0  0  0
  -15.3120    2.6100  -11.6500 H   0  0  0  0  0  0  0  0  0  0  0  0
  -15.4079    0.7801   -9.6266 H   0  0  0  0  0  0  0  0  0  0  0  0
  -14.0050   -0.9241   -8.4202 H   0  0  0  0  0  0  0  0  0  0  0  0
  -10.6063    0.0048  -10.9596 H   0  0  0  0  0  0  0  0  0  0  0  0
   -8.2145    1.5082  -13.9826 H   0  0  0  0  0  0  0  0  0  0  0  0
   -8.8689    0.8931  -15.5383 H   0  0  0  0  0  0  0  0  0  0  0  0
   -7.5644    2.1279  -15.5383 H   0  0  0  0  0  0  0  0  0  0  0  0
  1  2  1  0
  2  3  1  0
  3  4  1  0
  4  5  1  0
  3  6  1  0
  6  7  1  0
  7  8  1  0
  8  9  1  0
  9 10  2  0
  9 11  1  0
 11 12  2  0
 12 13  1  0
 12 14  1  0
 14 15  1  0
 15 16  1  0
 16 17  2  0
 17 18  1  0
 18 19  2  0
 18 20  1  0
 20 21  1  0
 21 22  1  0
 22 23  2  0
 23 24  1  0
 24 25  1  0
 24 26  2  0
 26 27  1  0
 15 28  2  0
 28 29  1  0
 28 11  1  0
 27 17  1  0
 27 21  2  0
  1 30  1  0
  1 31  1  0
  1 32  1  0
  2 33  1  0
  2 34  1  0
  4 35  1  0
  4 36  1  0
  5 37  1  0
  5 38  1  0
  5 39  1  0
  6 40  1  0
  6 41  1  0
  7 42  1  0
  7 43  1  0
  8 44  1  0
 13 45  1  0
 13 46  1  0
 13 47  1  0
 14 48  1  0
 16 49  1  0
 20 50  1  0
 22 51  1  0
 23 52  1  0
 26 53  1  0
 29 54  1  0
 29 55  1  0
 29 56  1  0
M  END
>  <meeko>  (1) 
{"is_sidechain": false}

>  <vina_affinity_kcal_mol>  (1) 
-9.474

>  <pose_rank>  (1) 
1

$$$$

     RDKit          3D

 56 58  0  0  0  0  0  0  0  0999 V2000
  -14.3820   -3.1730   -9.6680 C   0  0  0  0  0  0  0  0  0  0  0  0
  -14.7110   -1.7490   -9.2290 C   0  0  0  0  0  0  0  0  0  0  0  0
  -13.8850   -0.7160   -9.8770 N   0  0  0  0  0  0  0  0  0  0  0  0
  -14.5790    0.5800   -9.9530 C   0  0  0  0  0  0  0  0  0  0  0  0
  -13.9630    1.5220  -10.9830 C   0  0  0  0  0  0  0  0  0  0  0  0
  -12.5430   -0.5720   -9.2750 C   0  0  0  0  0  0  0  0  0  0  0  0
  -11.3610   -1.2030  -10.0390 C   0  0  0  0  0  0  0  0  0  0  0  0
  -10.7690   -0.2810  -10.9880 N   0  0  0  0  0  0  0  0  0  0  0  0
  -10.4820   -0.6570  -12.2800 C   0  0  0  0  0  0  0  0  0  0  0  0
  -10.7030   -1.7840  -12.7110 O   0  0  0  0  0  0  0  0  0  0  0  0
   -9.8410    0.3900  -13.0770 C   0  0  0  0  0  0  0  0  0  0  0  0
   -8.4720    0.4830  -13.2780 C   0  0  0  0  0  0  0  0  0  0  0  0
   -7.3620   -0.3820  -12.7970 C   0  0  0  0  0  0  0  0  0  0  0  0
   -8.2270    1.5910  -14.0460 N   0  0  0  0  0  0  0  0  0  0  0  0
   -9.3980    2.2250  -14.3770 C   0  0  0  0  0  0  0  0  0  0  0  0
   -9.4260    3.4080  -15.1730 C   0  0  0  0  0  0  0  0  0  0  0  0
   -8.8470    3.6630  -16.3570 C   0  0  0  0  0  0  0  0  0  0  0  0
   -7.9750    2.8040  -17.2460 C   0  0  0  0  0  0  0  0  0  0  0  0
   -7.6050    1.6610  -17.0620 O   0  0  0  0  0  0  0  0  0  0  0  0
   -7.6700    3.5930  -18.3410 N   0  0  0  0  0  0  0  0  0  0  0  0
   -8.2490    4.8510  -18.2410 C   0  0  0  0  0  0  0  0  0  0  0  0
   -8.1470    5.8810  -19.1570 C   0  0  0  0  0  0  0  0  0  0  0  0
   -8.8130    7.0690  -18.8570 C   0  0  0  0  0  0  0  0  0  0  0  0
   -9.5490    7.1860  -17.6680 C   0  0  0  0  0  0  0  0  0  0  0  0
  -10.1780    8.3390  -17.4050 F   0  0  0  0  0  0  0  0  0  0  0  0
   -9.6430    6.1370  -16.7520 C   0  0  0  0  0  0  0  0  0  0  0  0
   -8.9810    4.9600  -17.0520 C   0  0  0  0  0  0  0  0  0  0  0  0
  -10.4330    1.4800  -13.8150 C   0  0  0  0  0  0  0  0  0  0  0  0
  -11.8940    1.7450  -13.9750 C   0  0  0  0  0  0  0  0  0  0  0  0
  -14.2358   -3.8058   -8.7802 H   0  0  0  0  0  0  0  0  0  0  0  0
  -15.2116   -3.5720  -10.2701 H   0  0  0  0  0  0  0  0  0  0  0  0
  -13.4614   -3.1676  -10.2701 H   0  0  0  0  0  0  0  0  0  0  0  0
  -15.7658   -1.5485   -9.4679 H   0  0  0  0  0  0  0  0  0  0  0  0
  -14.5026   -1.6925   -8.1504 H   0  0  0  0  0  0  0  0  0  0  0  0
  -15.6296    0.4005  -10.2251 H   0  0  0  0  0  0  0  0  0  0  0  0
  -14.4887    1.0619   -8.9683 H   0  0  0  0  0  0  0  0  0  0  0  0
  -13.4318    2.3344  -10.4655 H   0  0  0  0  0  0  0  0  0  0  0  0
  -13.2549    0.9638  -11.6131 H   0  0  0  0  0  0  0  0  0  0  0  0
  -14.7582    1.9470  -11.6131 H   0  0  0  0  0  0  0  0  0  0  0  0
  -12.3375    0.5041   -9.1761 H   0  0  0  0  0  0  0  0  0  0  0  0
  -12.5957   -1.1235   -8.3247 H   0  0  0  0  0  0  0  0  0  0  0  0
  -10.5921   -1.5073   -9.3136 H   0  0  0  0  0  0  0  0  0  0  0  0
  -11.7445   -2.0671  -10.6013 H   0  0  0  0  0  0  0  0  0  0  0  0
  -10.4080    0.6030  -10.6580 H   0  0  0  0  0  0  0  0  0  0  0  0
   -7.3529   -0.3891  -11.6971 H   0  0  0  0  0  0  0  0  0  0  0  0
   -7.5081   -1.4068  -13.1691 H   0  0  0  0  0  0  0  0  0  0  0  0
   -6.4040    0.0101  -13.1691 H   0  0  0  0  0  0  0  0  0  0  0  0
   -7.2980    1.8880  -14.3280 H   0  0  0  0  0  0  0  0  0  0  0  0
  -10.0117    4.2387  -14.7524 H   0  0  0  0  0  0  0  0  0  0  0  0
   -7.0950    3.2650  -19.1020 H   0  0  0  0  0  0  0  0  0  0  0  0
   -7.5650    5.7684  -20.0836 H   0  0  0  0  0  0  0  0  0  0  0  0
   -8.7612    7.9175  -19.5551 H   0  0  0  0  0  0  0  0  0  0  0  0
  -10.2235    6.2426  -15.8236 H   0  0  0  0  0  0  0  0  0  0  0  0
  -12.3620    1.8299  -12.9832 H   0  0  0  0  0  0  0  0  0  0  0  0
  -12.0377    2.6839  -14.5298 H   0  0  0  0  0  0  0  0  0  0  0  0
  -12.3583    0.9164  -14.5298 H   0  0  0  0  0  0  0  0  0  0  0  0
  1  2  1  0
  2  3  1  0
  3  4  1  0
  4  5  1  0
  3  6  1  0
  6  7  1  0
  7  8  1  0
  8  9  1  0
  9 10  2  0
  9 11  1  0
 11 12  2  0
 12 13  1  0
 12 14  1  0
 14 15  1  0
 15 16  1  0
 16 17  2  0
 17 18  1  0
 18 19  2  0
 18 20  1  0
 20 21  1  0
 21 22  1  0
 22 23  2  0
 23 24  1  0
 24 25  1  0
 24 26  2  0
 26 27  1  0
 15 28  2  0
 28 29  1  0
 28 11  1  0
 27 17  1  0
 27 21  2  0
  1 30  1  0
  1 31  1  0
  1 32  1  0
  2 33  1  0
  2 34  1  0
  4 35  1  0
  4 36  1  0
  5 37  1  0
  5 38  1  0
  5 39  1  0
  6 40  1  0
  6 41  1  0
  7 42  1  0
  7 43  1  0
  8 44  1  0
 13 45  1  0
 13 46  1  0
 13 47  1  0
 14 48  1  0
 16 49  1  0
 20 50  1  0
 22 51  1  0
 23 52  1  0
 26 53  1  0
 29 54  1  0
 29 55  1  0
 29 56  1  0
M  END
>  <meeko>  (2) 
{"is_sidechain": false}

>  <vina_affinity_kcal_mol>  (2) 
-9.417

>  <pose_rank>  (2) 
2

$$$$

     RDKit          3D

 56 58  0  0  0  0  0  0  0  0999 V2000
   -7.0260    4.7790  -17.6220 C   0  0  0  0  0  0  0  0  0  0  0  0
   -7.9350    5.2590  -18.7500 C   0  0  0  0  0  0  0  0  0  0  0  0
   -8.5910    6.5500  -18.4820 N   0  0  0  0  0  0  0  0  0  0  0  0
   -9.5260    6.9270  -19.5550 C   0  0  0  0  0  0  0  0  0  0  0  0
   -9.5640    8.4320  -19.8050 C   0  0  0  0  0  0  0  0  0  0  0  0
   -9.2400    6.6170  -17.1560 C   0  0  0  0  0  0  0  0  0  0  0  0
  -10.6290    5.9600  -17.0220 C   0  0  0  0  0  0  0  0  0  0  0  0
  -10.7360    5.1470  -15.8280 N   0  0  0  0  0  0  0  0  0  0  0  0
  -10.3590    3.8230  -15.8170 C   0  0  0  0  0  0  0  0  0  0  0  0
   -9.9140    3.2490  -16.8050 O   0  0  0  0  0  0  0  0  0  0  0  0
  -10.5880    3.1490  -14.5370 C   0  0  0  0  0  0  0  0  0  0  0  0
   -9.5770    2.6340  -13.7410 C   0  0  0  0  0  0  0  0  0  0  0  0
   -8.1020    2.6290  -13.9300 C   0  0  0  0  0  0  0  0  0  0  0  0
  -10.1530    2.0550  -12.6400 N   0  0  0  0  0  0  0  0  0  0  0  0
  -11.5180    2.1900  -12.6750 C   0  0  0  0  0  0  0  0  0  0  0  0
  -12.3620    1.6740  -11.6470 C   0  0  0  0  0  0  0  0  0  0  0  0
  -12.2870    0.5150  -10.9730 C   0  0  0  0  0  0  0  0  0  0  0  0
  -11.3050   -0.6300  -11.0660 C   0  0  0  0  0  0  0  0  0  0  0  0
  -10.3420   -0.7430  -11.8010 O   0  0  0  0  0  0  0  0  0  0  0  0
  -11.7240   -1.5570  -10.1270 N   0  0  0  0  0  0  0  0  0  0  0  0
  -12.8590   -1.1240   -9.4550 C   0  0  0  0  0  0  0  0  0  0  0  0
  -13.5370   -1.8010   -8.4590 C   0  0  0  0  0  0  0  0  0  0  0  0
  -14.6610   -1.1800   -7.9160 C   0  0  0  0  0  0  0  0  0  0  0  0
  -15.0640    0.0810   -8.3810 C   0  0  0  0  0  0  0  0  0  0  0  0
  -16.1490    0.6550   -7.8420 F   0  0  0  0  0  0  0  0  0  0  0  0
  -14.3710    0.7540   -9.3880 C   0  0  0  0  0  0  0  0  0  0  0  0
  -13.2560    0.1350   -9.9240 C   0  0  0  0  0  0  0  0  0  0  0  0
  -11.8240    2.9010  -13.8340 C   0  0  0  0  0  0  0  0  0  0  0  0
  -13.1840    3.3520  -14.2560 C   0  0  0  0  0  0  0  0  0  0  0  0
   -7.4854    5.0216  -16.6524 H   0  0  0  0  0  0  0  0  0  0  0  0
   -6.8881    3.6905  -17.7003 H   0  0  0  0  0  0  0  0  0  0  0  0
   -6.0493    5.2789  -17.7003 H   0  0  0  0  0  0  0  0  0  0  0  0
   -7.3293    5.3615  -19.6625 H   0  0  0  0  0  0  0  0  0  0  0  0
   -8.7348    4.5111  -18.8545 H   0  0  0  0  0  0  0  0  0  0  0  0
   -9.2168    6.4243  -20.4833 H   0  0  0  0  0  0  0  0  0  0  0  0
  -10.5336    6.6182  -19.2397 H   0  0  0  0  0  0  0  0  0  0  0  0
   -9.5774    8.9634  -18.8420 H   0  0  0  0  0  0  0  0  0  0  0  0
   -8.6731    8.7314  -20.3766 H   0  0  0  0  0  0  0  0  0  0  0  0
  -10.4688    8.6860  -20.3766 H   0  0  0  0  0  0  0  0  0  0  0  0
   -8.5703    6.1274  -16.4337 H   0  0  0  0  0  0  0  0  0  0  0  0
   -9.4124    7.6884  -16.9763 H   0  0  0  0  0  0  0  0  0  0  0  0
  -11.3927    6.7507  -16.9820 H   0  0  0  0  0  0  0  0  0  0  0  0
  -10.7779    5.3038  -17.8922 H   0  0  0  0  0  0  0  0  0  0  0  0
  -11.2460    5.5030  -15.0320 H   0  0  0  0  0  0  0  0  0  0  0  0
   -7.6065    2.6273  -12.9479 H   0  0  0  0  0  0  0  0  0  0  0  0
   -7.8073    1.7299  -14.4909 H   0  0  0  0  0  0  0  0  0  0  0  0
   -7.8012    3.5261  -14.4909 H   0  0  0  0  0  0  0  0  0  0  0  0
   -9.6260    1.5960  -11.9030 H   0  0  0  0  0  0  0  0  0  0  0  0
  -13.2023    2.3247  -11.3633 H   0  0  0  0  0  0  0  0  0  0  0  0
  -11.2420   -2.4300   -9.9730 H   0  0  0  0  0  0  0  0  0  0  0  0
  -13.2036   -2.7891   -8.1091 H   0  0  0  0  0  0  0  0  0  0  0  0
  -15.2335   -1.6800   -7.1208 H   0  0  0  0  0  0  0  0  0  0  0  0
  -14.6997    1.7419   -9.7431 H   0  0  0  0  0  0  0  0  0  0  0  0
  -13.7960    3.5549  -13.3647 H   0  0  0  0  0  0  0  0  0  0  0  0
  -13.0961    4.2691  -14.8570 H   0  0  0  0  0  0  0  0  0  0  0  0
  -13.6615    2.5641  -14.8570 H   0  0  0  0  0  0  0  0  0  0  0  0
  1  2  1  0
  2  3  1  0
  3  4  1  0
  4  5  1  0
  3  6  1  0
  6  7  1  0
  7  8  1  0
  8  9  1  0
  9 10  2  0
  9 11  1  0
 11 12  2  0
 12 13  1  0
 12 14  1  0
 14 15  1  0
 15 16  1  0
 16 17  2  0
 17 18  1  0
 18 19  2  0
 18 20  1  0
 20 21  1  0
 21 22  1  0
 22 23  2  0
 23 24  1  0
 24 25  1  0
 24 26  2  0
 26 27  1  0
 15 28  2  0
 28 29  1  0
 28 11  1  0
 27 17  1  0
 27 21  2  0
  1 30  1  0
  1 31  1  0
  1 32  1  0
  2 33  1  0
  2 34  1  0
  4 35  1  0
  4 36  1  0
  5 37  1  0
  5 38  1  0
  5 39  1  0
  6 40  1  0
  6 41  1  0
  7 42  1  0
  7 43  1  0
  8 44  1  0
 13 45  1  0
 13 46  1  0
 13 47  1  0
 14 48  1  0
 16 49  1  0
 20 50  1  0
 22 51  1  0
 23 52  1  0
 26 53  1  0
 29 54  1  0
 29 55  1  0
 29 56  1  0
M  END
>  <meeko>  (3) 
{"is_sidechain": false}

>  <vina_affinity_kcal_mol>  (3) 
-9.297

>  <pose_rank>  (3) 
3

$$$$

     RDKit          3D

 56 58  0  0  0  0  0  0  0  0999 V2000
  -14.8520   -2.6250   -9.3760 C   0  0  0  0  0  0  0  0  0  0  0  0
  -13.4390   -2.2900   -9.8460 C   0  0  0  0  0  0  0  0  0  0  0  0
  -12.3830   -3.0560   -9.1620 N   0  0  0  0  0  0  0  0  0  0  0  0
  -11.9390   -4.2140   -9.9560 C   0  0  0  0  0  0  0  0  0  0  0  0
  -12.5120   -5.5340   -9.4490 C   0  0  0  0  0  0  0  0  0  0  0  0
  -11.2370   -2.2270   -8.7340 C   0  0  0  0  0  0  0  0  0  0  0  0
  -10.0590   -2.0970   -9.7220 C   0  0  0  0  0  0  0  0  0  0  0  0
  -10.1980   -0.9430  -10.5880 N   0  0  0  0  0  0  0  0  0  0  0  0
  -10.5400   -1.0710  -11.9150 C   0  0  0  0  0  0  0  0  0  0  0  0
  -10.7470   -2.1560  -12.4480 O   0  0  0  0  0  0  0  0  0  0  0  0
  -10.5820    0.1980  -12.6450 C   0  0  0  0  0  0  0  0  0  0  0  0
  -11.4640    1.2280  -12.3580 C   0  0  0  0  0  0  0  0  0  0  0  0
  -12.5180    1.3390  -11.3150 C   0  0  0  0  0  0  0  0  0  0  0  0
  -11.2390    2.2440  -13.2510 N   0  0  0  0  0  0  0  0  0  0  0  0
  -10.2180    1.9230  -14.1100 C   0  0  0  0  0  0  0  0  0  0  0  0
   -9.7810    2.8070  -15.1390 C   0  0  0  0  0  0  0  0  0  0  0  0
  -10.3110    3.9680  -15.5590 C   0  0  0  0  0  0  0  0  0  0  0  0
  -11.5350    4.7280  -15.1010 C   0  0  0  0  0  0  0  0  0  0  0  0
  -12.3230    4.4330  -14.2230 O   0  0  0  0  0  0  0  0  0  0  0  0
  -11.5900    5.8580  -15.8980 N   0  0  0  0  0  0  0  0  0  0  0  0
  -10.5400    5.8940  -16.8050 C   0  0  0  0  0  0  0  0  0  0  0  0
  -10.2950    6.8780  -17.7440 C   0  0  0  0  0  0  0  0  0  0  0  0
   -9.1770    6.7150  -18.5620 C   0  0  0  0  0  0  0  0  0  0  0  0
   -8.3530    5.5890  -18.4150 C   0  0  0  0  0  0  0  0  0  0  0  0
   -7.2850    5.4580  -19.2150 F   0  0  0  0  0  0  0  0  0  0  0  0
   -8.6120    4.6040  -17.4630 C   0  0  0  0  0  0  0  0  0  0  0  0
   -9.7230    4.7680  -16.6530 C   0  0  0  0  0  0  0  0  0  0  0  0
   -9.7590    0.6610  -13.7370 C   0  0  0  0  0  0  0  0  0  0  0  0
   -8.6030   -0.0680  -14.3400 C   0  0  0  0  0  0  0  0  0  0  0  0
  -14.8807   -2.6318   -8.2764 H   0  0  0  0  0  0  0  0  0  0  0  0
  -15.5540   -1.8684   -9.7564 H   0  0  0  0  0  0  0  0  0  0  0  0
  -15.1396   -3.6162   -9.7564 H   0  0  0  0  0  0  0  0  0  0  0  0
  -13.3745   -2.4985  -10.9241 H   0  0  0  0  0  0  0  0  0  0  0  0
  -13.2676   -1.2296   -9.6088 H   0  0  0  0  0  0  0  0  0  0  0  0
  -12.2596   -4.0691  -10.9982 H   0  0  0  0  0  0  0  0  0  0  0  0
  -10.8440   -4.2739   -9.8701 H   0  0  0  0  0  0  0  0  0  0  0  0
  -12.5125   -5.5351   -8.3490 H   0  0  0  0  0  0  0  0  0  0  0  0
  -13.5422   -5.6517   -9.8162 H   0  0  0  0  0  0  0  0  0  0  0  0
  -11.8945   -6.3669   -9.8162 H   0  0  0  0  0  0  0  0  0  0  0  0
  -11.6164   -1.2139   -8.5347 H   0  0  0  0  0  0  0  0  0  0  0  0
  -10.8198   -2.7463   -7.8587 H   0  0  0  0  0  0  0  0  0  0  0  0
   -9.1249   -2.0001   -9.1493 H   0  0  0  0  0  0  0  0  0  0  0  0
  -10.0476   -2.9962  -10.3554 H   0  0  0  0  0  0  0  0  0  0  0  0
   -9.8810   -0.0410  -10.2630 H   0  0  0  0  0  0  0  0  0  0  0  0
  -12.0545    1.2902  -10.3186 H   0  0  0  0  0  0  0  0  0  0  0  0
  -13.0456    2.2977  -11.4274 H   0  0  0  0  0  0  0  0  0  0  0  0
  -13.2337    0.5113  -11.4274 H   0  0  0  0  0  0  0  0  0  0  0  0
  -11.7640    3.1140  -13.2600 H   0  0  0  0  0  0  0  0  0  0  0  0
   -8.8712    2.4906  -15.6702 H   0  0  0  0  0  0  0  0  0  0  0  0
  -12.3160    6.5530  -15.8040 H   0  0  0  0  0  0  0  0  0  0  0  0
  -10.9541    7.7532  -17.8422 H   0  0  0  0  0  0  0  0  0  0  0  0
   -8.9406    7.4716  -19.3247 H   0  0  0  0  0  0  0  0  0  0  0  0
   -7.9564    3.7269  -17.3589 H   0  0  0  0  0  0  0  0  0  0  0  0
   -7.9651   -0.4703  -13.5392 H   0  0  0  0  0  0  0  0  0  0  0  0
   -8.9754   -0.8950  -14.9624 H   0  0  0  0  0  0  0  0  0  0  0  0
   -8.0172    0.6244  -14.9624 H   0  0  0  0  0  0  0  0  0  0  0  0
  1  2  1  0
  2  3  1  0
  3  4  1  0
  4  5  1  0
  3  6  1  0
  6  7  1  0
  7  8  1  0
  8  9  1  0
  9 10  2  0
  9 11  1  0
 11 12  2  0
 12 13  1  0
 12 14  1  0
 14 15  1  0
 15 16  1  0
 16 17  2  0
 17 18  1  0
 18 19  2  0
 18 20  1  0
 20 21  1  0
 21 22  1  0
 22 23  2  0
 23 24  1  0
 24 25  1  0
 24 26  2  0
 26 27  1  0
 15 28  2  0
 28 29  1  0
 28 11  1  0
 27 17  1  0
 27 21  2  0
  1 30  1  0
  1 31  1  0
  1 32  1  0
  2 33  1  0
  2 34  1  0
  4 35  1  0
  4 36  1  0
  5 37  1  0
  5 38  1  0
  5 39  1  0
  6 40  1  0
  6 41  1  0
  7 42  1  0
  7 43  1  0
  8 44  1  0
 13 45  1  0
 13 46  1  0
 13 47  1  0
 14 48  1  0
 16 49  1  0
 20 50  1  0
 22 51  1  0
 23 52  1  0
 26 53  1  0
 29 54  1  0
 29 55  1  0
 29 56  1  0
M  END
>  <meeko>  (4) 
{"is_sidechain": false}

>  <vina_affinity_kcal_mol>  (4) 
-9.088

>  <pose_rank>  (4) 
4

$$$$

     RDKit          3D

 56 58  0  0  0  0  0  0  0  0999 V2000
  -12.6420   -4.0660  -10.9320 C   0  0  0  0  0  0  0  0  0  0  0  0
  -13.0680   -3.5100   -9.5760 C   0  0  0  0  0  0  0  0  0  0  0  0
  -13.1890   -2.0430   -9.5410 N   0  0  0  0  0  0  0  0  0  0  0  0
  -14.4750   -1.6070   -8.9710 C   0  0  0  0  0  0  0  0  0  0  0  0
  -15.5710   -2.6590   -9.1120 C   0  0  0  0  0  0  0  0  0  0  0  0
  -12.0510   -1.3740   -8.8740 C   0  0  0  0  0  0  0  0  0  0  0  0
  -12.0050    0.1660   -8.9440 C   0  0  0  0  0  0  0  0  0  0  0  0
  -11.5070    0.6400  -10.2190 N   0  0  0  0  0  0  0  0  0  0  0  0
  -12.3550    1.0960  -11.2040 C   0  0  0  0  0  0  0  0  0  0  0  0
  -13.5730    1.1300  -11.0700 O   0  0  0  0  0  0  0  0  0  0  0  0
  -11.6760    1.4840  -12.4420 C   0  0  0  0  0  0  0  0  0  0  0  0
  -10.6940    0.7240  -13.0580 C   0  0  0  0  0  0  0  0  0  0  0  0
  -10.1080   -0.5900  -12.6830 C   0  0  0  0  0  0  0  0  0  0  0  0
  -10.2670    1.4000  -14.1720 N   0  0  0  0  0  0  0  0  0  0  0  0
  -10.9540    2.5790  -14.3220 C   0  0  0  0  0  0  0  0  0  0  0  0
  -10.7040    3.4750  -15.4020 C   0  0  0  0  0  0  0  0  0  0  0  0
   -9.5830    3.6700  -16.1160 C   0  0  0  0  0  0  0  0  0  0  0  0
   -8.2190    3.0250  -16.0260 C   0  0  0  0  0  0  0  0  0  0  0  0
   -7.8400    2.1620  -15.2580 O   0  0  0  0  0  0  0  0  0  0  0  0
   -7.4590    3.6240  -17.0160 N   0  0  0  0  0  0  0  0  0  0  0  0
   -8.1910    4.5730  -17.7170 C   0  0  0  0  0  0  0  0  0  0  0  0
   -7.7400    5.3530  -18.7650 C   0  0  0  0  0  0  0  0  0  0  0  0
   -8.6480    6.2490  -19.3300 C   0  0  0  0  0  0  0  0  0  0  0  0
   -9.9580    6.3340  -18.8340 C   0  0  0  0  0  0  0  0  0  0  0  0
  -10.8080    7.2040  -19.3950 F   0  0  0  0  0  0  0  0  0  0  0  0
  -10.3990    5.5400  -17.7750 C   0  0  0  0  0  0  0  0  0  0  0  0
   -9.4960    4.6520  -17.2170 C   0  0  0  0  0  0  0  0  0  0  0  0
  -11.8700    2.6480  -13.2730 C   0  0  0  0  0  0  0  0  0  0  0  0
  -12.8900    3.7190  -13.0660 C   0  0  0  0  0  0  0  0  0  0  0  0
  -11.9793   -4.9310  -10.7818 H   0  0  0  0  0  0  0  0  0  0  0  0
  -13.5328   -4.3801  -11.4958 H   0  0  0  0  0  0  0  0  0  0  0  0
  -12.1069   -3.2876  -11.4958 H   0  0  0  0  0  0  0  0  0  0  0  0
  -14.0447   -3.9439   -9.3157 H   0  0  0  0  0  0  0  0  0  0  0  0
  -12.2792   -3.7813   -8.8590 H   0  0  0  0  0  0  0  0  0  0  0  0
  -14.3305   -1.3910   -7.9021 H   0  0  0  0  0  0  0  0  0  0  0  0
  -14.7985   -0.7149   -9.5274 H   0  0  0  0  0  0  0  0  0  0  0  0
  -15.9035   -2.9782   -8.1132 H   0  0  0  0  0  0  0  0  0  0  0  0
  -16.4218   -2.2307   -9.6622 H   0  0  0  0  0  0  0  0  0  0  0  0
  -15.1779   -3.5266   -9.6622 H   0  0  0  0  0  0  0  0  0  0  0  0
  -12.0761   -1.6572   -7.8114 H   0  0  0  0  0  0  0  0  0  0  0  0
  -11.1596   -1.7116   -9.4231 H   0  0  0  0  0  0  0  0  0  0  0  0
  -13.0215    0.5582   -8.7925 H   0  0  0  0  0  0  0  0  0  0  0  0
  -11.3190    0.5199   -8.1603 H   0  0  0  0  0  0  0  0  0  0  0  0
  -10.5390    0.4840  -10.4600 H   0  0  0  0  0  0  0  0  0  0  0  0
  -10.0700   -0.6752  -11.5870 H   0  0  0  0  0  0  0  0  0  0  0  0
  -10.7305   -1.3993  -13.0923 H   0  0  0  0  0  0  0  0  0  0  0  0
   -9.0899   -0.6677  -13.0923 H   0  0  0  0  0  0  0  0  0  0  0  0
   -9.5420    1.0590  -14.7960 H   0  0  0  0  0  0  0  0  0  0  0  0
  -11.5589    4.1020  -15.6953 H   0  0  0  0  0  0  0  0  0  0  0  0
   -6.4950    3.3770  -17.1840 H   0  0  0  0  0  0  0  0  0  0  0  0
   -6.7084    5.2708  -19.1380 H   0  0  0  0  0  0  0  0  0  0  0  0
   -8.3360    6.8909  -20.1670 H   0  0  0  0  0  0  0  0  0  0  0  0
  -11.4290    5.6171  -17.3966 H   0  0  0  0  0  0  0  0  0  0  0  0
  -13.0413    3.8779  -11.9881 H   0  0  0  0  0  0  0  0  0  0  0  0
  -12.5396    4.6534  -13.5287 H   0  0  0  0  0  0  0  0  0  0  0  0
  -13.8404    3.4146  -13.5287 H   0  0  0  0  0  0  0  0  0  0  0  0
  1  2  1  0
  2  3  1  0
  3  4  1  0
  4  5  1  0
  3  6  1  0
  6  7  1  0
  7  8  1  0
  8  9  1  0
  9 10  2  0
  9 11  1  0
 11 12  2  0
 12 13  1  0
 12 14  1  0
 14 15  1  0
 15 16  1  0
 16 17  2  0
 17 18  1  0
 18 19  2  0
 18 20  1  0
 20 21  1  0
 21 22  1  0
 22 23  2  0
 23 24  1  0
 24 25  1  0
 24 26  2  0
 26 27  1  0
 15 28  2  0
 28 29  1  0
 28 11  1  0
 27 17  1  0
 27 21  2  0
  1 30  1  0
  1 31  1  0
  1 32  1  0
  2 33  1  0
  2 34  1  0
  4 35  1  0
  4 36  1  0
  5 37  1  0
  5 38  1  0
  5 39  1  0
  6 40  1  0
  6 41  1  0
  7 42  1  0
  7 43  1  0
  8 44  1  0
 13 45  1  0
 13 46  1  0
 13 47  1  0
 14 48  1  0
 16 49  1  0
 20 50  1  0
 22 51  1  0
 23 52  1  0
 26 53  1  0
 29 54  1  0
 29 55  1  0
 29 56  1  0
M  END
>  <meeko>  (5) 
{"is_sidechain": false}

>  <vina_affinity_kcal_mol>  (5) 
-9.068

>  <pose_rank>  (5) 
5

$$$$

     RDKit          3D

 56 58  0  0  0  0  0  0  0  0999 V2000
  -13.2910   -3.7120   -9.9670 C   0  0  0  0  0  0  0  0  0  0  0  0
  -13.2530   -2.1940   -9.8080 C   0  0  0  0  0  0  0  0  0  0  0  0
  -12.1220   -1.7040   -9.0030 N   0  0  0  0  0  0  0  0  0  0  0  0
  -12.5490   -1.2510   -7.6690 C   0  0  0  0  0  0  0  0  0  0  0  0
  -12.3560    0.2480   -7.4630 C   0  0  0  0  0  0  0  0  0  0  0  0
  -11.0040   -2.6670   -8.9110 C   0  0  0  0  0  0  0  0  0  0  0  0
   -9.7900   -2.4210   -9.8310 C   0  0  0  0  0  0  0  0  0  0  0  0
   -9.9500   -1.2280  -10.6390 N   0  0  0  0  0  0  0  0  0  0  0  0
  -10.4490   -1.2830  -11.9200 C   0  0  0  0  0  0  0  0  0  0  0  0
  -10.7870   -2.3310  -12.4590 O   0  0  0  0  0  0  0  0  0  0  0  0
  -10.4900    0.0140  -12.6000 C   0  0  0  0  0  0  0  0  0  0  0  0
  -11.3300    1.0540  -12.2350 C   0  0  0  0  0  0  0  0  0  0  0  0
  -12.3320    1.1520  -11.1410 C   0  0  0  0  0  0  0  0  0  0  0  0
  -11.1190    2.0970  -13.0990 N   0  0  0  0  0  0  0  0  0  0  0  0
  -10.1460    1.7830  -14.0160 C   0  0  0  0  0  0  0  0  0  0  0  0
   -9.7330    2.6950  -15.0320 C   0  0  0  0  0  0  0  0  0  0  0  0
  -10.2910    3.8490  -15.4310 C   0  0  0  0  0  0  0  0  0  0  0  0
  -11.5310    4.5730  -14.9560 C   0  0  0  0  0  0  0  0  0  0  0  0
  -12.3090    4.2460  -14.0810 O   0  0  0  0  0  0  0  0  0  0  0  0
  -11.6140    5.7150  -15.7340 N   0  0  0  0  0  0  0  0  0  0  0  0
  -10.5680    5.7910  -16.6430 C   0  0  0  0  0  0  0  0  0  0  0  0
  -10.3480    6.7960  -17.5660 C   0  0  0  0  0  0  0  0  0  0  0  0
   -9.2290    6.6720  -18.3890 C   0  0  0  0  0  0  0  0  0  0  0  0
   -8.3780    5.5640  -18.2630 C   0  0  0  0  0  0  0  0  0  0  0  0
   -7.3100    5.4710  -19.0670 F   0  0  0  0  0  0  0  0  0  0  0  0
   -8.6130    4.5570  -17.3270 C   0  0  0  0  0  0  0  0  0  0  0  0
   -9.7240    4.6810  -16.5120 C   0  0  0  0  0  0  0  0  0  0  0  0
   -9.7050    0.4970  -13.7110 C   0  0  0  0  0  0  0  0  0  0  0  0
   -8.5970   -0.2370  -14.3930 C   0  0  0  0  0  0  0  0  0  0  0  0
  -13.3028   -4.1845   -8.9737 H   0  0  0  0  0  0  0  0  0  0  0  0
  -14.1966   -4.0001  -10.5209 H   0  0  0  0  0  0  0  0  0  0  0  0
  -12.4009   -4.0451  -10.5209 H   0  0  0  0  0  0  0  0  0  0  0  0
  -13.1860   -1.7430  -10.8091 H   0  0  0  0  0  0  0  0  0  0  0  0
  -14.1711   -1.9070   -9.2744 H   0  0  0  0  0  0  0  0  0  0  0  0
  -13.6155   -1.4886   -7.5420 H   0  0  0  0  0  0  0  0  0  0  0  0
  -11.9238   -1.7700   -6.9276 H   0  0  0  0  0  0  0  0  0  0  0  0
  -12.3275    0.4694   -6.3859 H   0  0  0  0  0  0  0  0  0  0  0  0
  -11.4099    0.5631   -7.9273 H   0  0  0  0  0  0  0  0  0  0  0  0
  -13.1915    0.7925   -7.9273 H   0  0  0  0  0  0  0  0  0  0  0  0
  -10.6411   -2.6559   -7.8726 H   0  0  0  0  0  0  0  0  0  0  0  0
  -11.4255   -3.6267   -9.2447 H   0  0  0  0  0  0  0  0  0  0  0  0
   -8.8901   -2.3094   -9.2083 H   0  0  0  0  0  0  0  0  0  0  0  0
   -9.7011   -3.2809  -10.5111 H   0  0  0  0  0  0  0  0  0  0  0  0
   -9.5400   -0.3600  -10.3250 H   0  0  0  0  0  0  0  0  0  0  0  0
  -11.8196    1.1019  -10.1689 H   0  0  0  0  0  0  0  0  0  0  0  0
  -12.8714    2.1072  -11.2223 H   0  0  0  0  0  0  0  0  0  0  0  0
  -13.0463    0.3194  -11.2223 H   0  0  0  0  0  0  0  0  0  0  0  0
  -11.6190    2.9790  -13.0530 H   0  0  0  0  0  0  0  0  0  0  0  0
   -8.8176    2.4091  -15.5708 H   0  0  0  0  0  0  0  0  0  0  0  0
  -12.3560    6.3920  -15.6270 H   0  0  0  0  0  0  0  0  0  0  0  0
  -11.0270    7.6575  -17.6480 H   0  0  0  0  0  0  0  0  0  0  0  0
   -9.0128    7.4462  -19.1400 H   0  0  0  0  0  0  0  0  0  0  0  0
   -7.9376    3.6932  -17.2398 H   0  0  0  0  0  0  0  0  0  0  0  0
   -7.9303   -0.6786  -13.6377 H   0  0  0  0  0  0  0  0  0  0  0  0
   -9.0184   -1.0352  -15.0218 H   0  0  0  0  0  0  0  0  0  0  0  0
   -8.0264    0.4623  -15.0218 H   0  0  0  0  0  0  0  0  0  0  0  0
  1  2  1  0
  2  3  1  0
  3  4  1  0
  4  5  1  0
  3  6  1  0
  6  7  1  0
  7  8  1  0
  8  9  1  0
  9 10  2  0
  9 11  1  0
 11 12  2  0
 12 13  1  0
 12 14  1  0
 14 15  1  0
 15 16  1  0
 16 17  2  0
 17 18  1  0
 18 19  2  0
 18 20  1  0
 20 21  1  0
 21 22  1  0
 22 23  2  0
 23 24  1  0
 24 25  1  0
 24 26  2  0
 26 27  1  0
 15 28  2  0
 28 29  1  0
 28 11  1  0
 27 17  1  0
 27 21  2  0
  1 30  1  0
  1 31  1  0
  1 32  1  0
  2 33  1  0
  2 34  1  0
  4 35  1  0
  4 36  1  0
  5 37  1  0
  5 38  1  0
  5 39  1  0
  6 40  1  0
  6 41  1  0
  7 42  1  0
  7 43  1  0
  8 44  1  0
 13 45  1  0
 13 46  1  0
 13 47  1  0
 14 48  1  0
 16 49  1  0
 20 50  1  0
 22 51  1  0
 23 52  1  0
 26 53  1  0
 29 54  1  0
 29 55  1  0
 29 56  1  0
M  END
>  <meeko>  (6) 
{"is_sidechain": false}

>  <vina_affinity_kcal_mol>  (6) 
-8.937

>  <pose_rank>  (6) 
6

$$$$

     RDKit          3D

 56 58  0  0  0  0  0  0  0  0999 V2000
  -10.5710    7.1590  -22.3960 C   0  0  0  0  0  0  0  0  0  0  0  0
   -9.6700    7.9950  -21.4910 C   0  0  0  0  0  0  0  0  0  0  0  0
   -9.4620    7.4150  -20.1530 N   0  0  0  0  0  0  0  0  0  0  0  0
   -9.4440    8.4460  -19.1020 C   0  0  0  0  0  0  0  0  0  0  0  0
   -9.0390    9.8200  -19.6270 C   0  0  0  0  0  0  0  0  0  0  0  0
  -10.4130    6.3320  -19.8270 C   0  0  0  0  0  0  0  0  0  0  0  0
  -10.9790    6.3050  -18.3920 C   0  0  0  0  0  0  0  0  0  0  0  0
  -10.6060    5.0990  -17.6800 N   0  0  0  0  0  0  0  0  0  0  0  0
   -9.5160    5.0620  -16.8410 C   0  0  0  0  0  0  0  0  0  0  0  0
   -8.7950    6.0340  -16.6420 O   0  0  0  0  0  0  0  0  0  0  0  0
   -9.2630    3.7460  -16.2500 C   0  0  0  0  0  0  0  0  0  0  0  0
  -10.0050    3.2070  -15.2120 C   0  0  0  0  0  0  0  0  0  0  0  0
  -11.1740    3.7520  -14.4720 C   0  0  0  0  0  0  0  0  0  0  0  0
   -9.4760    1.9820  -14.8990 N   0  0  0  0  0  0  0  0  0  0  0  0
   -8.4140    1.6850  -15.7160 C   0  0  0  0  0  0  0  0  0  0  0  0
   -7.6810    0.4670  -15.6020 C   0  0  0  0  0  0  0  0  0  0  0  0
   -6.5000    0.2260  -15.0100 C   0  0  0  0  0  0  0  0  0  0  0  0
   -5.5490    1.1420  -14.2730 C   0  0  0  0  0  0  0  0  0  0  0  0
   -5.6610    2.3330  -14.0580 O   0  0  0  0  0  0  0  0  0  0  0  0
   -4.4910    0.3400  -13.8800 N   0  0  0  0  0  0  0  0  0  0  0  0
   -4.6690   -0.9750  -14.2870 C   0  0  0  0  0  0  0  0  0  0  0  0
   -3.8080   -2.0320  -14.0610 C   0  0  0  0  0  0  0  0  0  0  0  0
   -4.1830   -3.2790  -14.5610 C   0  0  0  0  0  0  0  0  0  0  0  0
   -5.3920   -3.4250  -15.2590 C   0  0  0  0  0  0  0  0  0  0  0  0
   -5.7270   -4.6350  -15.7290 F   0  0  0  0  0  0  0  0  0  0  0  0
   -6.2510   -2.3490  -15.4800 C   0  0  0  0  0  0  0  0  0  0  0  0
   -5.8760   -1.1130  -14.9830 C   0  0  0  0  0  0  0  0  0  0  0  0
   -8.2730    2.7550  -16.5990 C   0  0  0  0  0  0  0  0  0  0  0  0
   -7.2940    2.8430  -17.7230 C   0  0  0  0  0  0  0  0  0  0  0  0
  -11.2382    6.5399  -21.7783 H   0  0  0  0  0  0  0  0  0  0  0  0
  -11.1730    7.8257  -23.0310 H   0  0  0  0  0  0  0  0  0  0  0  0
   -9.9512    6.5089  -23.0310 H   0  0  0  0  0  0  0  0  0  0  0  0
   -8.6898    8.0990  -21.9793 H   0  0  0  0  0  0  0  0  0  0  0  0
  -10.1744    8.9615  -21.3444 H   0  0  0  0  0  0  0  0  0  0  0  0
  -10.4508    8.5197  -18.6650 H   0  0  0  0  0  0  0  0  0  0  0  0
   -8.6954    8.1436  -18.3549 H   0  0  0  0  0  0  0  0  0  0  0  0
   -8.8408   10.4925  -18.7794 H   0  0  0  0  0  0  0  0  0  0  0  0
   -8.1306    9.7251  -20.2401 H   0  0  0  0  0  0  0  0  0  0  0  0
   -9.8536   10.2330  -20.2401 H   0  0  0  0  0  0  0  0  0  0  0  0
  -11.2645    6.4190  -20.5179 H   0  0  0  0  0  0  0  0  0  0  0  0
   -9.8315    5.4031  -19.9221 H   0  0  0  0  0  0  0  0  0  0  0  0
  -10.5920    7.1754  -17.8419 H   0  0  0  0  0  0  0  0  0  0  0  0
  -12.0765    6.3312  -18.4609 H   0  0  0  0  0  0  0  0  0  0  0  0
  -11.0490    4.2250  -17.9240 H   0  0  0  0  0  0  0  0  0  0  0  0
  -10.9945    3.6683  -13.3900 H   0  0  0  0  0  0  0  0  0  0  0  0
  -11.3166    4.8095  -14.7393 H   0  0  0  0  0  0  0  0  0  0  0  0
  -12.0756    3.1814  -14.7393 H   0  0  0  0  0  0  0  0  0  0  0  0
   -9.8350    1.3830  -14.1610 H   0  0  0  0  0  0  0  0  0  0  0  0
   -8.1551   -0.4082  -16.0702 H   0  0  0  0  0  0  0  0  0  0  0  0
   -3.7030    0.6980  -13.3610 H   0  0  0  0  0  0  0  0  0  0  0  0
   -2.8660   -1.8956  -13.5097 H   0  0  0  0  0  0  0  0  0  0  0  0
   -3.5294   -4.1504  -14.4079 H   0  0  0  0  0  0  0  0  0  0  0  0
   -7.1945   -2.4782  -16.0306 H   0  0  0  0  0  0  0  0  0  0  0  0
   -6.2761    2.9345  -17.3163 H   0  0  0  0  0  0  0  0  0  0  0  0
   -7.3620    1.9351  -18.3404 H   0  0  0  0  0  0  0  0  0  0  0  0
   -7.5228    3.7242  -18.3404 H   0  0  0  0  0  0  0  0  0  0  0  0
  1  2  1  0
  2  3  1  0
  3  4  1  0
  4  5  1  0
  3  6  1  0
  6  7  1  0
  7  8  1  0
  8  9  1  0
  9 10  2  0
  9 11  1  0
 11 12  2  0
 12 13  1  0
 12 14  1  0
 14 15  1  0
 15 16  1  0
 16 17  2  0
 17 18  1  0
 18 19  2  0
 18 20  1  0
 20 21  1  0
 21 22  1  0
 22 23  2  0
 23 24  1  0
 24 25  1  0
 24 26  2  0
 26 27  1  0
 15 28  2  0
 28 29  1  0
 28 11  1  0
 27 17  1  0
 27 21  2  0
  1 30  1  0
  1 31  1  0
  1 32  1  0
  2 33  1  0
  2 34  1  0
  4 35  1  0
  4 36  1  0
  5 37  1  0
  5 38  1  0
  5 39  1  0
  6 40  1  0
  6 41  1  0
  7 42  1  0
  7 43  1  0
  8 44  1  0
 13 45  1  0
 13 46  1  0
 13 47  1  0
 14 48  1  0
 16 49  1  0
 20 50  1  0
 22 51  1  0
 23 52  1  0
 26 53  1  0
 29 54  1  0
 29 55  1  0
 29 56  1  0
M  END
>  <meeko>  (7) 
{"is_sidechain": false}

>  <vina_affinity_kcal_mol>  (7) 
-8.89

>  <pose_rank>  (7) 
7

$$$$

     RDKit          3D

 56 58  0  0  0  0  0  0  0  0999 V2000
   -6.0610   -1.8780  -15.7570 C   0  0  0  0  0  0  0  0  0  0  0  0
   -5.0080   -0.8970  -16.2650 C   0  0  0  0  0  0  0  0  0  0  0  0
   -5.5220    0.4630  -16.5030 N   0  0  0  0  0  0  0  0  0  0  0  0
   -4.7800    1.4760  -15.7340 C   0  0  0  0  0  0  0  0  0  0  0  0
   -5.4990    1.8900  -14.4540 C   0  0  0  0  0  0  0  0  0  0  0  0
   -5.5950    0.8220  -17.9350 C   0  0  0  0  0  0  0  0  0  0  0  0
   -6.9430    1.3650  -18.4530 C   0  0  0  0  0  0  0  0  0  0  0  0
   -7.9000    1.5620  -17.3830 N   0  0  0  0  0  0  0  0  0  0  0  0
   -8.1590    2.8090  -16.8630 C   0  0  0  0  0  0  0  0  0  0  0  0
   -7.6030    3.8260  -17.2640 O   0  0  0  0  0  0  0  0  0  0  0  0
   -9.1140    2.8060  -15.7530 C   0  0  0  0  0  0  0  0  0  0  0  0
  -10.0060    3.8360  -15.4950 C   0  0  0  0  0  0  0  0  0  0  0  0
  -10.2380    5.1180  -16.2120 C   0  0  0  0  0  0  0  0  0  0  0  0
  -10.7230    3.5090  -14.3740 N   0  0  0  0  0  0  0  0  0  0  0  0
  -10.3450    2.2810  -13.8920 C   0  0  0  0  0  0  0  0  0  0  0  0
  -10.9360    1.7020  -12.7310 C   0  0  0  0  0  0  0  0  0  0  0  0
  -12.1850    1.8180  -12.2520 C   0  0  0  0  0  0  0  0  0  0  0  0
  -13.3810    2.5890  -12.7640 C   0  0  0  0  0  0  0  0  0  0  0  0
  -13.4600    3.2910  -13.7530 O   0  0  0  0  0  0  0  0  0  0  0  0
  -14.4000    2.3350  -11.8630 N   0  0  0  0  0  0  0  0  0  0  0  0
  -13.9800    1.4930  -10.8420 C   0  0  0  0  0  0  0  0  0  0  0  0
  -14.7410    1.0400   -9.7810 C   0  0  0  0  0  0  0  0  0  0  0  0
  -14.1170    0.1960   -8.8630 C   0  0  0  0  0  0  0  0  0  0  0  0
  -12.7710   -0.1620   -9.0340 C   0  0  0  0  0  0  0  0  0  0  0  0
  -12.1960   -0.9740   -8.1360 F   0  0  0  0  0  0  0  0  0  0  0  0
  -12.0150    0.3030  -10.1100 C   0  0  0  0  0  0  0  0  0  0  0  0
  -12.6370    1.1400  -11.0200 C   0  0  0  0  0  0  0  0  0  0  0  0
   -9.3620    1.7950  -14.7530 C   0  0  0  0  0  0  0  0  0  0  0  0
   -8.7050    0.4560  -14.6710 C   0  0  0  0  0  0  0  0  0  0  0  0
   -6.0614   -1.8784  -14.6570 H   0  0  0  0  0  0  0  0  0  0  0  0
   -7.0525   -1.5742  -16.1239 H   0  0  0  0  0  0  0  0  0  0  0  0
   -5.8281   -2.8885  -16.1239 H   0  0  0  0  0  0  0  0  0  0  0  0
   -4.2025   -0.8367  -15.5183 H   0  0  0  0  0  0  0  0  0  0  0  0
   -4.6581   -1.2795  -17.2352 H   0  0  0  0  0  0  0  0  0  0  0  0
   -3.7961    1.0632  -15.4666 H   0  0  0  0  0  0  0  0  0  0  0  0
   -4.6887    2.3710  -16.3669 H   0  0  0  0  0  0  0  0  0  0  0  0
   -4.9177    1.5553  -13.5822 H   0  0  0  0  0  0  0  0  0  0  0  0
   -5.6008    2.9850  -14.4284 H   0  0  0  0  0  0  0  0  0  0  0  0
   -6.4971    1.4283  -14.4284 H   0  0  0  0  0  0  0  0  0  0  0  0
   -4.8326    1.5922  -18.1233 H   0  0  0  0  0  0  0  0  0  0  0  0
   -5.4416   -0.1240  -18.4749 H   0  0  0  0  0  0  0  0  0  0  0  0
   -6.7680    2.3286  -18.9539 H   0  0  0  0  0  0  0  0  0  0  0  0
   -7.3616    0.6229  -19.1488 H   0  0  0  0  0  0  0  0  0  0  0  0
   -8.2660    0.7570  -16.8940 H   0  0  0  0  0  0  0  0  0  0  0  0
  -10.3842    5.9261  -15.4802 H   0  0  0  0  0  0  0  0  0  0  0  0
   -9.3669    5.3480  -16.8431 H   0  0  0  0  0  0  0  0  0  0  0  0
  -11.1345    5.0281  -16.8431 H   0  0  0  0  0  0  0  0  0  0  0  0
  -11.4390    4.1040  -13.9680 H   0  0  0  0  0  0  0  0  0  0  0  0
  -10.2666    1.0626  -12.1369 H   0  0  0  0  0  0  0  0  0  0  0  0
  -15.3240    2.7280  -11.9640 H   0  0  0  0  0  0  0  0  0  0  0  0
  -15.7949    1.3330   -9.6655 H   0  0  0  0  0  0  0  0  0  0  0  0
  -14.6818   -0.1905   -8.0018 H   0  0  0  0  0  0  0  0  0  0  0  0
  -10.9605    0.0143  -10.2312 H   0  0  0  0  0  0  0  0  0  0  0  0
   -8.5688    0.1784  -13.6153 H   0  0  0  0  0  0  0  0  0  0  0  0
   -9.3375   -0.2939  -15.1686 H   0  0  0  0  0  0  0  0  0  0  0  0
   -7.7249    0.4974  -15.1686 H   0  0  0  0  0  0  0  0  0  0  0  0
  1  2  1  0
  2  3  1  0
  3  4  1  0
  4  5  1  0
  3  6  1  0
  6  7  1  0
  7  8  1  0
  8  9  1  0
  9 10  2  0
  9 11  1  0
 11 12  2  0
 12 13  1  0
 12 14  1  0
 14 15  1  0
 15 16  1  0
 16 17  2  0
 17 18  1  0
 18 19  2  0
 18 20  1  0
 20 21  1  0
 21 22  1  0
 22 23  2  0
 23 24  1  0
 24 25  1  0
 24 26  2  0
 26 27  1  0
 15 28  2  0
 28 29  1  0
 28 11  1  0
 27 17  1  0
 27 21  2  0
  1 30  1  0
  1 31  1  0
  1 32  1  0
  2 33  1  0
  2 34  1  0
  4 35  1  0
  4 36  1  0
  5 37  1  0
  5 38  1  0
  5 39  1  0
  6 40  1  0
  6 41  1  0
  7 42  1  0
  7 43  1  0
  8 44  1  0
 13 45  1  0
 13 46  1  0
 13 47  1  0
 14 48  1  0
 16 49  1  0
 20 50  1  0
 22 51  1  0
 23 52  1  0
 26 53  1  0
 29 54  1  0
 29 55  1  0
 29 56  1  0
M  END
>  <meeko>  (8) 
{"is_sidechain": false}

>  <vina_affinity_kcal_mol>  (8) 
-8.832

>  <pose_rank>  (8) 
8

$$$$

     RDKit          3D

 56 58  0  0  0  0  0  0  0  0999 V2000
  -12.5420   -2.8480   -6.1250 C   0  0  0  0  0  0  0  0  0  0  0  0
  -12.1890   -3.9220   -7.1510 C   0  0  0  0  0  0  0  0  0  0  0  0
  -13.0680   -3.9350   -8.3320 N   0  0  0  0  0  0  0  0  0  0  0  0
  -12.9790   -5.2040   -9.0730 C   0  0  0  0  0  0  0  0  0  0  0  0
  -13.2690   -5.0420  -10.5620 C   0  0  0  0  0  0  0  0  0  0  0  0
  -14.4720   -3.5890   -8.0250 C   0  0  0  0  0  0  0  0  0  0  0  0
  -15.0640   -2.3590   -8.7440 C   0  0  0  0  0  0  0  0  0  0  0  0
  -14.0970   -1.7160   -9.6110 N   0  0  0  0  0  0  0  0  0  0  0  0
  -13.4470   -0.5610   -9.2410 C   0  0  0  0  0  0  0  0  0  0  0  0
  -13.6400   -0.0040   -8.1650 O   0  0  0  0  0  0  0  0  0  0  0  0
  -12.5460   -0.0280  -10.2650 C   0  0  0  0  0  0  0  0  0  0  0  0
  -11.2780   -0.5280  -10.5180 C   0  0  0  0  0  0  0  0  0  0  0  0
  -10.5370   -1.6520   -9.8880 C   0  0  0  0  0  0  0  0  0  0  0  0
  -10.7150    0.2230  -11.5170 N   0  0  0  0  0  0  0  0  0  0  0  0
  -11.5840    1.1940  -11.9480 C   0  0  0  0  0  0  0  0  0  0  0  0
  -11.2450    2.1140  -12.9830 C   0  0  0  0  0  0  0  0  0  0  0  0
  -10.4280    1.9610  -14.0380 C   0  0  0  0  0  0  0  0  0  0  0  0
   -9.5910    0.7850  -14.4880 C   0  0  0  0  0  0  0  0  0  0  0  0
   -9.4820   -0.3080  -13.9660 O   0  0  0  0  0  0  0  0  0  0  0  0
   -8.9520    1.2040  -15.6420 N   0  0  0  0  0  0  0  0  0  0  0  0
   -9.2910    2.5100  -15.9670 C   0  0  0  0  0  0  0  0  0  0  0  0
   -8.8350    3.2340  -17.0520 C   0  0  0  0  0  0  0  0  0  0  0  0
   -9.3060    4.5400  -17.1920 C   0  0  0  0  0  0  0  0  0  0  0  0
  -10.2060    5.0690  -16.2540 C   0  0  0  0  0  0  0  0  0  0  0  0
  -10.6420    6.3270  -16.4120 F   0  0  0  0  0  0  0  0  0  0  0  0
  -10.6580    4.3260  -15.1630 C   0  0  0  0  0  0  0  0  0  0  0  0
  -10.1880    3.0320  -15.0280 C   0  0  0  0  0  0  0  0  0  0  0  0
  -12.7560    1.0440  -11.2090 C   0  0  0  0  0  0  0  0  0  0  0  0
  -14.0120    1.8320  -11.3840 C   0  0  0  0  0  0  0  0  0  0  0  0
  -12.4092   -3.2522   -5.1106 H   0  0  0  0  0  0  0  0  0  0  0  0
  -11.8824   -1.9786   -6.2626 H   0  0  0  0  0  0  0  0  0  0  0  0
  -13.5888   -2.5394   -6.2626 H   0  0  0  0  0  0  0  0  0  0  0  0
  -11.1568   -3.7502   -7.4901 H   0  0  0  0  0  0  0  0  0  0  0  0
  -12.3147   -4.8934   -6.6504 H   0  0  0  0  0  0  0  0  0  0  0  0
  -11.9631   -5.6091   -8.9550 H   0  0  0  0  0  0  0  0  0  0  0  0
  -13.7400   -5.8823   -8.6598 H   0  0  0  0  0  0  0  0  0  0  0  0
  -14.2224   -4.5094  -10.6941 H   0  0  0  0  0  0  0  0  0  0  0  0
  -12.4588   -4.4658  -11.0328 H   0  0  0  0  0  0  0  0  0  0  0  0
  -13.3349   -6.0340  -11.0328 H   0  0  0  0  0  0  0  0  0  0  0  0
  -15.0930   -4.4579   -8.2883 H   0  0  0  0  0  0  0  0  0  0  0  0
  -14.4738   -3.3239   -6.9574 H   0  0  0  0  0  0  0  0  0  0  0  0
  -15.9236   -2.6820   -9.3496 H   0  0  0  0  0  0  0  0  0  0  0  0
  -15.3669   -1.6315   -7.9765 H   0  0  0  0  0  0  0  0  0  0  0  0
  -14.0130   -2.0220  -10.5700 H   0  0  0  0  0  0  0  0  0  0  0  0
  -10.5962   -1.5623   -8.7933 H   0  0  0  0  0  0  0  0  0  0  0  0
  -10.9831   -2.6071  -10.2023 H   0  0  0  0  0  0  0  0  0  0  0  0
   -9.4834   -1.6184  -10.2023 H   0  0  0  0  0  0  0  0  0  0  0  0
   -9.7800    0.0660  -11.8820 H   0  0  0  0  0  0  0  0  0  0  0  0
  -11.7262    3.1001  -12.9057 H   0  0  0  0  0  0  0  0  0  0  0  0
   -8.3240    0.6080  -16.1610 H   0  0  0  0  0  0  0  0  0  0  0  0
   -8.1299    2.7988  -17.7755 H   0  0  0  0  0  0  0  0  0  0  0  0
   -8.9712    5.1563  -18.0394 H   0  0  0  0  0  0  0  0  0  0  0  0
  -11.3634    4.7542  -14.4357 H   0  0  0  0  0  0  0  0  0  0  0  0
  -14.4234    2.0901  -10.3970 H   0  0  0  0  0  0  0  0  0  0  0  0
  -13.7917    2.7540  -11.9419 H   0  0  0  0  0  0  0  0  0  0  0  0
  -14.7463    1.2324  -11.9419 H   0  0  0  0  0  0  0  0  0  0  0  0
  1  2  1  0
  2  3  1  0
  3  4  1  0
  4  5  1  0
  3  6  1  0
  6  7  1  0
  7  8  1  0
  8  9  1  0
  9 10  2  0
  9 11  1  0
 11 12  2  0
 12 13  1  0
 12 14  1  0
 14 15  1  0
 15 16  1  0
 16 17  2  0
 17 18  1  0
 18 19  2  0
 18 20  1  0
 20 21  1  0
 21 22  1  0
 22 23  2  0
 23 24  1  0
 24 25  1  0
 24 26  2  0
 26 27  1  0
 15 28  2  0
 28 29  1  0
 28 11  1  0
 27 17  1  0
 27 21  2  0
  1 30  1  0
  1 31  1  0
  1 32  1  0
  2 33  1  0
  2 34  1  0
  4 35  1  0
  4 36  1  0
  5 37  1  0
  5 38  1  0
  5 39  1  0
  6 40  1  0
  6 41  1  0
  7 42  1  0
  7 43  1  0
  8 44  1  0
 13 45  1  0
 13 46  1  0
 13 47  1  0
 14 48  1  0
 16 49  1  0
 20 50  1  0
 22 51  1  0
 23 52  1  0
 26 53  1  0
 29 54  1  0
 29 55  1  0
 29 56  1  0
M  END
>  <meeko>  (9) 
{"is_sidechain": false}

>  <vina_affinity_kcal_mol>  (9) 
-8.765

>  <pose_rank>  (9) 
9

$$$$

     RDKit          3D

 56 58  0  0  0  0  0  0  0  0999 V2000
  -13.3130   -3.2360  -10.2290 C   0  0  0  0  0  0  0  0  0  0  0  0
  -11.8300   -3.2810  -10.5840 C   0  0  0  0  0  0  0  0  0  0  0  0
  -11.0970   -2.0470  -10.2540 N   0  0  0  0  0  0  0  0  0  0  0  0
  -11.9960   -0.9810   -9.7800 C   0  0  0  0  0  0  0  0  0  0  0  0
  -11.8040    0.3320  -10.5330 C   0  0  0  0  0  0  0  0  0  0  0  0
   -9.9750   -2.2610   -9.3150 C   0  0  0  0  0  0  0  0  0  0  0  0
   -8.5530   -2.2630   -9.9120 C   0  0  0  0  0  0  0  0  0  0  0  0
   -8.3860   -1.2440  -10.9290 N   0  0  0  0  0  0  0  0  0  0  0  0
   -7.8160   -1.5250  -12.1500 C   0  0  0  0  0  0  0  0  0  0  0  0
   -7.4140   -2.6420  -12.4550 O   0  0  0  0  0  0  0  0  0  0  0  0
   -7.6830   -0.3610  -13.0280 C   0  0  0  0  0  0  0  0  0  0  0  0
   -6.4770    0.2610  -13.3130 C   0  0  0  0  0  0  0  0  0  0  0  0
   -5.0950   -0.0520  -12.8620 C   0  0  0  0  0  0  0  0  0  0  0  0
   -6.7300    1.3230  -14.1420 N   0  0  0  0  0  0  0  0  0  0  0  0
   -8.0690    1.4110  -14.4310 C   0  0  0  0  0  0  0  0  0  0  0  0
   -8.6030    2.4290  -15.2730 C   0  0  0  0  0  0  0  0  0  0  0  0
   -8.0240    3.1040  -16.2800 C   0  0  0  0  0  0  0  0  0  0  0  0
   -6.6300    3.0250  -16.8610 C   0  0  0  0  0  0  0  0  0  0  0  0
   -5.7090    2.3070  -16.5220 O   0  0  0  0  0  0  0  0  0  0  0  0
   -6.6010    3.9570  -17.8840 N   0  0  0  0  0  0  0  0  0  0  0  0
   -7.8180    4.6140  -18.0110 C   0  0  0  0  0  0  0  0  0  0  0  0
   -8.1320    5.5990  -18.9270 C   0  0  0  0  0  0  0  0  0  0  0  0
   -9.4220    6.1270  -18.8800 C   0  0  0  0  0  0  0  0  0  0  0  0
  -10.3420    5.6580  -17.9310 C   0  0  0  0  0  0  0  0  0  0  0  0
  -11.5750    6.1830  -17.9070 F   0  0  0  0  0  0  0  0  0  0  0  0
  -10.0110    4.6620  -17.0110 C   0  0  0  0  0  0  0  0  0  0  0  0
   -8.7310    4.1400  -17.0610 C   0  0  0  0  0  0  0  0  0  0  0  0
   -8.6920    0.3490  -13.7760 C   0  0  0  0  0  0  0  0  0  0  0  0
  -10.1410   -0.0060  -13.8600 C   0  0  0  0  0  0  0  0  0  0  0  0
  -13.4282   -3.2325   -9.1351 H   0  0  0  0  0  0  0  0  0  0  0  0
  -13.7628   -2.3238  -10.6480 H   0  0  0  0  0  0  0  0  0  0  0  0
  -13.8173   -4.1193  -10.6480 H   0  0  0  0  0  0  0  0  0  0  0  0
  -11.3681   -4.1149  -10.0351 H   0  0  0  0  0  0  0  0  0  0  0  0
  -11.7678   -3.4058  -11.6751 H   0  0  0  0  0  0  0  0  0  0  0  0
  -13.0361   -1.3135   -9.9127 H   0  0  0  0  0  0  0  0  0  0  0  0
  -11.7594   -0.7940   -8.7221 H   0  0  0  0  0  0  0  0  0  0  0  0
  -11.6838    1.1540   -9.8120 H   0  0  0  0  0  0  0  0  0  0  0  0
  -10.9062    0.2644  -11.1650 H   0  0  0  0  0  0  0  0  0  0  0  0
  -12.6836    0.5243  -11.1650 H   0  0  0  0  0  0  0  0  0  0  0  0
  -10.0169   -1.4619   -8.5603 H   0  0  0  0  0  0  0  0  0  0  0  0
  -10.1213   -3.2780   -8.9222 H   0  0  0  0  0  0  0  0  0  0  0  0
   -7.8292   -2.0796   -9.1042 H   0  0  0  0  0  0  0  0  0  0  0  0
   -8.3857   -3.2424  -10.3839 H   0  0  0  0  0  0  0  0  0  0  0  0
   -8.5380   -0.2750  -10.6870 H   0  0  0  0  0  0  0  0  0  0  0  0
   -5.0610   -0.0597  -11.7626 H   0  0  0  0  0  0  0  0  0  0  0  0
   -4.7992   -1.0399  -13.2449 H   0  0  0  0  0  0  0  0  0  0  0  0
   -4.4025    0.7120  -13.2449 H   0  0  0  0  0  0  0  0  0  0  0  0
   -6.0110    1.9500  -14.4910 H   0  0  0  0  0  0  0  0  0  0  0  0
   -9.6480    2.7039  -15.0672 H   0  0  0  0  0  0  0  0  0  0  0  0
   -5.7810    4.1160  -18.4500 H   0  0  0  0  0  0  0  0  0  0  0  0
   -7.3950    5.9524  -19.6632 H   0  0  0  0  0  0  0  0  0  0  0  0
   -9.7187    6.9136  -19.5893 H   0  0  0  0  0  0  0  0  0  0  0  0
  -10.7428    4.3045  -16.2716 H   0  0  0  0  0  0  0  0  0  0  0  0
  -10.5532   -0.1070  -12.8452 H   0  0  0  0  0  0  0  0  0  0  0  0
  -10.6820    0.7862  -14.3983 H   0  0  0  0  0  0  0  0  0  0  0  0
  -10.2545   -0.9585  -14.3983 H   0  0  0  0  0  0  0  0  0  0  0  0
  1  2  1  0
  2  3  1  0
  3  4  1  0
  4  5  1  0
  3  6  1  0
  6  7  1  0
  7  8  1  0
  8  9  1  0
  9 10  2  0
  9 11  1  0
 11 12  2  0
 12 13  1  0
 12 14  1  0
 14 15  1  0
 15 16  1  0
 16 17  2  0
 17 18  1  0
 18 19  2  0
 18 20  1  0
 20 21  1  0
 21 22  1  0
 22 23  2  0
 23 24  1  0
 24 25  1  0
 24 26  2  0
 26 27  1  0
 15 28  2  0
 28 29  1  0
 28 11  1  0
 27 17  1  0
 27 21  2  0
  1 30  1  0
  1 31  1  0
  1 32  1  0
  2 33  1  0
  2 34  1  0
  4 35  1  0
  4 36  1  0
  5 37  1  0
  5 38  1  0
  5 39  1  0
  6 40  1  0
  6 41  1  0
  7 42  1  0
  7 43  1  0
  8 44  1  0
 13 45  1  0
 13 46  1  0
 13 47  1  0
 14 48  1  0
 16 49  1  0
 20 50  1  0
 22 51  1  0
 23 52  1  0
 26 53  1  0
 29 54  1  0
 29 55  1  0
 29 56  1  0
M  END
>  <meeko>  (10) 
{"is_sidechain": false}

>  <vina_affinity_kcal_mol>  (10) 
-8.674

>  <pose_rank>  (10) 
10

$$$$
