
     RDKit          3D

 48 50  0  0  0  0  0  0  0  0999 V2000
    9.9461   -0.7267    0.8523 C   0  0  0  0  0  0  0  0  0  0  0  0
    8.5674   -0.9216    0.4968 N   0  0  0  0  0  0  0  0  0  0  0  0
    7.7131    0.1307    0.2435 C   0  0  0  0  0  0  0  0  0  0  0  0
    8.0085    1.3101    0.3960 O   0  0  0  0  0  0  0  0  0  0  0  0
    6.3605   -0.2813   -0.2548 C   0  0  0  0  0  0  0  0  0  0  0  0
    5.4048    0.6837   -0.5278 C   0  0  0  0  0  0  0  0  0  0  0  0
    4.1638    0.2484   -0.9731 C   0  0  0  0  0  0  0  0  0  0  0  0
    3.2309    1.2161   -1.2708 O   0  0  0  0  0  0  0  0  0  0  0  0
    1.9493    1.0025   -0.8205 C   0  0  0  0  0  0  0  0  0  0  0  0
    1.6649    0.7533    0.5216 C   0  0  0  0  0  0  0  0  0  0  0  0
    0.3387    0.5773    0.9270 C   0  0  0  0  0  0  0  0  0  0  0  0
   -0.7098    0.6552   -0.0005 C   0  0  0  0  0  0  0  0  0  0  0  0
   -2.0199    0.4744    0.4900 N   0  0  0  0  0  0  0  0  0  0  0  0
   -3.1813    0.3184   -0.2538 C   0  0  0  0  0  0  0  0  0  0  0  0
   -3.2259    0.1991   -1.4705 O   0  0  0  0  0  0  0  0  0  0  0  0
   -4.2873    0.3151    0.5864 N   0  0  0  0  0  0  0  0  0  0  0  0
   -5.6293    0.0677    0.2321 C   0  0  0  0  0  0  0  0  0  0  0  0
   -6.0304   -0.4150   -1.0119 C   0  0  0  0  0  0  0  0  0  0  0  0
   -7.3836   -0.6443   -1.2795 C   0  0  0  0  0  0  0  0  0  0  0  0
   -8.3517   -0.3989   -0.3037 C   0  0  0  0  0  0  0  0  0  0  0  0
   -9.9984   -0.7092   -0.7143 Cl  0  0  0  0  0  0  0  0  0  0  0  0
   -7.9757    0.0774    0.9553 C   0  0  0  0  0  0  0  0  0  0  0  0
   -8.9930    0.3477    2.0299 C   0  0  0  0  0  0  0  0  0  0  0  0
   -9.6964   -0.7596    2.3917 F   0  0  0  0  0  0  0  0  0  0  0  0
   -9.9067    1.2925    1.6787 F   0  0  0  0  0  0  0  0  0  0  0  0
   -8.4293    0.8067    3.1869 F   0  0  0  0  0  0  0  0  0  0  0  0
   -6.6058    0.3039    1.2092 C   0  0  0  0  0  0  0  0  0  0  0  0
   -0.4114    0.9368   -1.3361 C   0  0  0  0  0  0  0  0  0  0  0  0
    0.9143    1.1169   -1.7445 C   0  0  0  0  0  0  0  0  0  0  0  0
    3.9268   -1.1109   -1.1692 C   0  0  0  0  0  0  0  0  0  0  0  0
    4.9467   -1.9983   -0.8729 C   0  0  0  0  0  0  0  0  0  0  0  0
    6.1595   -1.6225   -0.4140 N   0  0  0  0  0  0  0  0  0  0  0  0
   10.2983   -1.6158    1.3800 H   0  0  0  0  0  0  0  0  0  0  0  0
   10.0572    0.1550    1.4888 H   0  0  0  0  0  0  0  0  0  0  0  0
   10.5250   -0.5883   -0.0645 H   0  0  0  0  0  0  0  0  0  0  0  0
    8.2287   -1.8426    0.2291 H   0  0  0  0  0  0  0  0  0  0  0  0
    5.6173    1.7385   -0.3931 H   0  0  0  0  0  0  0  0  0  0  0  0
    2.4637    0.7045    1.2564 H   0  0  0  0  0  0  0  0  0  0  0  0
    0.1415    0.3809    1.9776 H   0  0  0  0  0  0  0  0  0  0  0  0
   -2.0977    0.2721    1.4748 H   0  0  0  0  0  0  0  0  0  0  0  0
   -4.1295    0.6855    1.5114 H   0  0  0  0  0  0  0  0  0  0  0  0
   -5.3148   -0.6319   -1.8001 H   0  0  0  0  0  0  0  0  0  0  0  0
   -7.6715   -1.0187   -2.2599 H   0  0  0  0  0  0  0  0  0  0  0  0
   -6.3087    0.6751    2.1895 H   0  0  0  0  0  0  0  0  0  0  0  0
   -1.1907    1.0382   -2.0856 H   0  0  0  0  0  0  0  0  0  0  0  0
    1.1323    1.3441   -2.7847 H   0  0  0  0  0  0  0  0  0  0  0  0
    2.9791   -1.4742   -1.5510 H   0  0  0  0  0  0  0  0  0  0  0  0
    4.8101   -3.0682   -1.0063 H   0  0  0  0  0  0  0  0  0  0  0  0
  1  2  1  0
  2  3  1  0
  3  4  2  0
  3  5  1  0
  5  6  2  0
  6  7  1  0
  7  8  1  0
  8  9  1  0
  9 10  1  0
 10 11  2  0
 11 12  1  0
 12 13  1  0
 13 14  1  0
 14 15  2  0
 14 16  1  0
 16 17  1  0
 17 18  1  0
 18 19  2  0
 19 20  1  0
 20 21  1  0
 20 22  2  0
 22 23  1  0
 23 24  1  0
 23 25  1  0
 23 26  1  0
 22 27  1  0
 12 28  2  0
 28 29  1  0
  7 30  2  0
 30 31  1  0
 31 32  2  0
 32  5  1  0
 29  9  2  0
 27 17  2  0
  1 33  1  0
  1 34  1  0
  1 35  1  0
  2 36  1  0
  6 37  1  0
 10 38  1  0
 11 39  1  0
 13 40  1  0
 16 41  1  0
 18 42  1  0
 19 43  1  0
 27 44  1  0
 28 45  1  0
 29 46  1  0
 30 47  1  0
 31 48  1  0
M  END
$$$$
