
     RDKit          3D

 48 50  0  0  0  0  0  0  0  0999 V2000
  -20.0560   -0.3530   -6.4600 C   0  0  0  0  0  0  0  0  0  0  0  0
  -18.6610   -0.5910   -6.7140 N   0  0  0  0  0  0  0  0  0  0  0  0
  -17.6750   -0.2200   -5.8240 C   0  0  0  0  0  0  0  0  0  0  0  0
  -17.8750    0.4270   -4.8030 O   0  0  0  0  0  0  0  0  0  0  0  0
  -16.3010   -0.6880   -6.2000 C   0  0  0  0  0  0  0  0  0  0  0  0
  -16.0280   -1.0340   -7.5140 C   0  0  0  0  0  0  0  0  0  0  0  0
  -14.7440   -1.4760   -7.8060 C   0  0  0  0  0  0  0  0  0  0  0  0
  -14.4740   -1.7870   -9.1200 O   0  0  0  0  0  0  0  0  0  0  0  0
  -13.6830   -0.9040   -9.8170 C   0  0  0  0  0  0  0  0  0  0  0  0
  -14.1360    0.3610  -10.1940 C   0  0  0  0  0  0  0  0  0  0  0  0
  -13.2760    1.2290  -10.8720 C   0  0  0  0  0  0  0  0  0  0  0  0
  -11.9600    0.8480  -11.1690 C   0  0  0  0  0  0  0  0  0  0  0  0
  -11.1540    1.7850  -11.8480 N   0  0  0  0  0  0  0  0  0  0  0  0
  -10.9460    1.8790  -13.2170 C   0  0  0  0  0  0  0  0  0  0  0  0
  -11.5330    1.2210  -14.0640 O   0  0  0  0  0  0  0  0  0  0  0  0
   -9.9730    2.8340  -13.4850 N   0  0  0  0  0  0  0  0  0  0  0  0
   -9.5620    3.3030  -14.7490 C   0  0  0  0  0  0  0  0  0  0  0  0
   -8.4270    2.8470  -15.4180 C   0  0  0  0  0  0  0  0  0  0  0  0
   -8.0950    3.3580  -16.6770 C   0  0  0  0  0  0  0  0  0  0  0  0
   -8.8950    4.3260  -17.2850 C   0  0  0  0  0  0  0  0  0  0  0  0
   -8.4150    4.9020  -18.8380 Cl  0  0  0  0  0  0  0  0  0  0  0  0
  -10.0430    4.7940  -16.6400 C   0  0  0  0  0  0  0  0  0  0  0  0
  -10.9300    5.8340  -17.2680 C   0  0  0  0  0  0  0  0  0  0  0  0
  -11.3670    5.4850  -18.5090 F   0  0  0  0  0  0  0  0  0  0  0  0
  -10.3290    7.0480  -17.3950 F   0  0  0  0  0  0  0  0  0  0  0  0
  -12.0640    6.0690  -16.5430 F   0  0  0  0  0  0  0  0  0  0  0  0
  -10.3650    4.2700  -15.3690 C   0  0  0  0  0  0  0  0  0  0  0  0
  -11.5120   -0.4100  -10.7560 C   0  0  0  0  0  0  0  0  0  0  0  0
  -12.3690   -1.2800  -10.0750 C   0  0  0  0  0  0  0  0  0  0  0  0
  -13.7750   -1.5220   -6.8060 C   0  0  0  0  0  0  0  0  0  0  0  0
  -14.1430   -1.1520   -5.5250 C   0  0  0  0  0  0  0  0  0  0  0  0
  -15.3840   -0.7420   -5.1890 N   0  0  0  0  0  0  0  0  0  0  0  0
  -20.2311   -0.3231   -5.3744 H   0  0  0  0  0  0  0  0  0  0  0  0
  -20.3510    0.6085   -6.9056 H   0  0  0  0  0  0  0  0  0  0  0  0
  -20.6531   -1.1622   -6.9056 H   0  0  0  0  0  0  0  0  0  0  0  0
  -18.3730   -1.2150   -7.4630 H   0  0  0  0  0  0  0  0  0  0  0  0
  -16.7986   -0.9614   -8.2956 H   0  0  0  0  0  0  0  0  0  0  0  0
  -15.1642    0.6731   -9.9588 H   0  0  0  0  0  0  0  0  0  0  0  0
  -13.6359    2.2229  -11.1762 H   0  0  0  0  0  0  0  0  0  0  0  0
  -10.8280    2.5650  -11.2980 H   0  0  0  0  0  0  0  0  0  0  0  0
   -9.3950    3.0960  -12.7010 H   0  0  0  0  0  0  0  0  0  0  0  0
   -7.7890    2.0810  -14.9531 H   0  0  0  0  0  0  0  0  0  0  0  0
   -7.1945    2.9932  -17.1928 H   0  0  0  0  0  0  0  0  0  0  0  0
  -11.2676    4.6293  -14.8531 H   0  0  0  0  0  0  0  0  0  0  0  0
  -10.4775   -0.7179  -10.9683 H   0  0  0  0  0  0  0  0  0  0  0  0
  -12.0036   -2.2629   -9.7429 H   0  0  0  0  0  0  0  0  0  0  0  0
  -12.7468   -1.8433   -7.0288 H   0  0  0  0  0  0  0  0  0  0  0  0
  -13.3796   -1.1944   -4.7341 H   0  0  0  0  0  0  0  0  0  0  0  0
  1  2  1  0
  2  3  1  0
  3  4  2  0
  3  5  1  0
  5  6  2  0
  6  7  1  0
  7  8  1  0
  8  9  1  0
  9 10  1  0
 10 11  2  0
 11 12  1  0
 12 13  1  0
 13 14  1  0
 14 15  2  0
 14 16  1  0
 16 17  1  0
 17 18  1  0
 18 19  2  0
 19 20  1  0
 20 21  1  0
 20 22  2  0
 22 23  1  0
 23 24  1  0
 23 25  1  0
 23 26  1  0
 22 27  1  0
 12 28  2  0
 28 29  1  0
  7 30  2  0
 30 31  1  0
 31 32  2  0
 32  5  1  0
 29  9  2  0
 27 17  2  0
  1 33  1  0
  1 34  1  0
  1 35  1  0
  2 36  1  0
  6 37  1  0
 10 38  1  0
 11 39  1  0
 13 40  1  0
 16 41  1  0
 18 42  1  0
 19 43  1  0
 27 44  1  0
 28 45  1  0
 29 46  1  0
 30 47  1  0
 31 48  1  0
M  END
>  <meeko>  (1) 
{"is_sidechain": false}

>  <vina_affinity_kcal_mol>  (1) 
-8.787

>  <pose_rank>  (1) 
1

$$$$

     RDKit          3D

 48 50  0  0  0  0  0  0  0  0999 V2000
   -5.5120   -7.1240  -15.8730 C   0  0  0  0  0  0  0  0  0  0  0  0
   -5.3940   -5.7900  -15.3510 N   0  0  0  0  0  0  0  0  0  0  0  0
   -4.4250   -4.9100  -15.7850 C   0  0  0  0  0  0  0  0  0  0  0  0
   -3.5250   -5.2050  -16.5620 O   0  0  0  0  0  0  0  0  0  0  0  0
   -4.5620   -3.5240  -15.2310 C   0  0  0  0  0  0  0  0  0  0  0  0
   -5.7970   -3.0780  -14.7910 C   0  0  0  0  0  0  0  0  0  0  0  0
   -5.8720   -1.7800  -14.3020 C   0  0  0  0  0  0  0  0  0  0  0  0
   -7.0980   -1.3570  -13.8380 O   0  0  0  0  0  0  0  0  0  0  0  0
   -7.6850   -0.3070  -14.5050 C   0  0  0  0  0  0  0  0  0  0  0  0
   -7.9450   -0.3500  -15.8750 C   0  0  0  0  0  0  0  0  0  0  0  0
   -8.5760    0.7340  -16.4930 C   0  0  0  0  0  0  0  0  0  0  0  0
   -8.9560    1.8610  -15.7500 C   0  0  0  0  0  0  0  0  0  0  0  0
   -9.5940    2.9080  -16.4460 N   0  0  0  0  0  0  0  0  0  0  0  0
   -9.0330    4.1100  -16.8540 C   0  0  0  0  0  0  0  0  0  0  0  0
   -7.8480    4.3980  -16.7670 O   0  0  0  0  0  0  0  0  0  0  0  0
  -10.0150    4.9400  -17.3770 N   0  0  0  0  0  0  0  0  0  0  0  0
   -9.8350    6.1930  -17.9980 C   0  0  0  0  0  0  0  0  0  0  0  0
   -9.3740    7.3310  -17.3380 C   0  0  0  0  0  0  0  0  0  0  0  0
   -9.2130    8.5340  -18.0320 C   0  0  0  0  0  0  0  0  0  0  0  0
   -9.5030    8.6140  -19.3940 C   0  0  0  0  0  0  0  0  0  0  0  0
   -9.2750   10.1350  -20.1740 Cl  0  0  0  0  0  0  0  0  0  0  0  0
   -9.9580    7.4860  -20.0830 C   0  0  0  0  0  0  0  0  0  0  0  0
  -10.2760    7.5360  -21.5520 C   0  0  0  0  0  0  0  0  0  0  0  0
  -11.2290    8.4580  -21.8610 F   0  0  0  0  0  0  0  0  0  0  0  0
  -10.7090    6.3460  -22.0490 F   0  0  0  0  0  0  0  0  0  0  0  0
   -9.1940    7.8710  -22.3160 F   0  0  0  0  0  0  0  0  0  0  0  0
  -10.1170    6.2790  -19.3690 C   0  0  0  0  0  0  0  0  0  0  0  0
   -8.7170    1.8740  -14.3730 C   0  0  0  0  0  0  0  0  0  0  0  0
   -8.0890    0.7910  -13.7510 C   0  0  0  0  0  0  0  0  0  0  0  0
   -4.7270   -0.9910  -14.2280 C   0  0  0  0  0  0  0  0  0  0  0  0
   -3.5370   -1.5280  -14.6880 C   0  0  0  0  0  0  0  0  0  0  0  0
   -3.4210   -2.7720  -15.1950 N   0  0  0  0  0  0  0  0  0  0  0  0
   -5.5753   -7.8395  -15.0399 H   0  0  0  0  0  0  0  0  0  0  0  0
   -6.4202   -7.1976  -16.4893 H   0  0  0  0  0  0  0  0  0  0  0  0
   -4.6309   -7.3559  -16.4893 H   0  0  0  0  0  0  0  0  0  0  0  0
   -6.1410   -5.3880  -14.7910 H   0  0  0  0  0  0  0  0  0  0  0  0
   -6.6846   -3.7267  -14.8273 H   0  0  0  0  0  0  0  0  0  0  0  0
   -7.6553   -1.2316  -16.4656 H   0  0  0  0  0  0  0  0  0  0  0  0
   -8.7766    0.7024  -17.5741 H   0  0  0  0  0  0  0  0  0  0  0  0
  -10.5010    2.6930  -16.8310 H   0  0  0  0  0  0  0  0  0  0  0  0
  -10.9640    4.6910  -17.1430 H   0  0  0  0  0  0  0  0  0  0  0  0
   -9.1356    7.2823  -16.2653 H   0  0  0  0  0  0  0  0  0  0  0  0
   -8.8540    9.4265  -17.4985 H   0  0  0  0  0  0  0  0  0  0  0  0
  -10.4709    5.3836  -19.9011 H   0  0  0  0  0  0  0  0  0  0  0  0
   -9.0255    2.7434  -13.7739 H   0  0  0  0  0  0  0  0  0  0  0  0
   -7.9140    0.8066  -12.6651 H   0  0  0  0  0  0  0  0  0  0  0  0
   -4.7670    0.0283  -13.8164 H   0  0  0  0  0  0  0  0  0  0  0  0
   -2.6330   -0.9033  -14.6369 H   0  0  0  0  0  0  0  0  0  0  0  0
  1  2  1  0
  2  3  1  0
  3  4  2  0
  3  5  1  0
  5  6  2  0
  6  7  1  0
  7  8  1  0
  8  9  1  0
  9 10  1  0
 10 11  2  0
 11 12  1  0
 12 13  1  0
 13 14  1  0
 14 15  2  0
 14 16  1  0
 16 17  1  0
 17 18  1  0
 18 19  2  0
 19 20  1  0
 20 21  1  0
 20 22  2  0
 22 23  1  0
 23 24  1  0
 23 25  1  0
 23 26  1  0
 22 27  1  0
 12 28  2  0
 28 29  1  0
  7 30  2  0
 30 31  1  0
 31 32  2  0
 32  5  1  0
 29  9  2  0
 27 17  2  0
  1 33  1  0
  1 34  1  0
  1 35  1  0
  2 36  1  0
  6 37  1  0
 10 38  1  0
 11 39  1  0
 13 40  1  0
 16 41  1  0
 18 42  1  0
 19 43  1  0
 27 44  1  0
 28 45  1  0
 29 46  1  0
 30 47  1  0
 31 48  1  0
M  END
>  <meeko>  (2) 
{"is_sidechain": false}

>  <vina_affinity_kcal_mol>  (2) 
-8.551

>  <pose_rank>  (2) 
2

$$$$

     RDKit          3D

 48 50  0  0  0  0  0  0  0  0999 V2000
   -8.1090   -1.4080   -7.8800 C   0  0  0  0  0  0  0  0  0  0  0  0
   -7.4690   -1.1090   -9.1320 N   0  0  0  0  0  0  0  0  0  0  0  0
   -6.2400   -1.6300   -9.4770 C   0  0  0  0  0  0  0  0  0  0  0  0
   -5.5400   -2.2990   -8.7260 O   0  0  0  0  0  0  0  0  0  0  0  0
   -5.8130   -1.3210  -10.8800 C   0  0  0  0  0  0  0  0  0  0  0  0
   -6.6610   -1.6110  -11.9370 C   0  0  0  0  0  0  0  0  0  0  0  0
   -6.2120   -1.3190  -13.2170 C   0  0  0  0  0  0  0  0  0  0  0  0
   -7.0740   -1.5820  -14.2580 O   0  0  0  0  0  0  0  0  0  0  0  0
   -7.6650   -0.4980  -14.8640 C   0  0  0  0  0  0  0  0  0  0  0  0
   -7.3710   -0.1280  -16.1770 C   0  0  0  0  0  0  0  0  0  0  0  0
   -8.0280    0.9630  -16.7510 C   0  0  0  0  0  0  0  0  0  0  0  0
   -8.9860    1.6860  -16.0260 C   0  0  0  0  0  0  0  0  0  0  0  0
   -9.6100    2.7680  -16.6800 N   0  0  0  0  0  0  0  0  0  0  0  0
   -9.0370    3.9840  -17.0270 C   0  0  0  0  0  0  0  0  0  0  0  0
   -7.8510    4.2590  -16.9150 O   0  0  0  0  0  0  0  0  0  0  0  0
  -10.0090    4.8430  -17.5220 N   0  0  0  0  0  0  0  0  0  0  0  0
   -9.8140    6.1220  -18.0840 C   0  0  0  0  0  0  0  0  0  0  0  0
   -9.3330    7.2190  -17.3730 C   0  0  0  0  0  0  0  0  0  0  0  0
   -9.1570    8.4530  -18.0100 C   0  0  0  0  0  0  0  0  0  0  0  0
   -9.4560    8.6020  -19.3650 C   0  0  0  0  0  0  0  0  0  0  0  0
   -9.2100   10.1550  -20.0730 Cl  0  0  0  0  0  0  0  0  0  0  0  0
   -9.9320    7.5150  -20.1030 C   0  0  0  0  0  0  0  0  0  0  0  0
  -10.2590    7.6400  -21.5660 C   0  0  0  0  0  0  0  0  0  0  0  0
  -10.6580    6.4650  -22.1260 F   0  0  0  0  0  0  0  0  0  0  0  0
   -9.2180    8.0940  -22.3130 F   0  0  0  0  0  0  0  0  0  0  0  0
  -11.2810    8.5150  -21.8050 F   0  0  0  0  0  0  0  0  0  0  0  0
  -10.1040    6.2770  -19.4460 C   0  0  0  0  0  0  0  0  0  0  0  0
   -9.2920    1.2830  -14.7230 C   0  0  0  0  0  0  0  0  0  0  0  0
   -8.6390    0.1900  -14.1460 C   0  0  0  0  0  0  0  0  0  0  0  0
   -4.9680   -0.7190  -13.4040 C   0  0  0  0  0  0  0  0  0  0  0  0
   -4.1950   -0.4640  -12.2850 C   0  0  0  0  0  0  0  0  0  0  0  0
   -4.5790   -0.7540  -11.0250 N   0  0  0  0  0  0  0  0  0  0  0  0
   -7.4539   -1.1019   -7.0510 H   0  0  0  0  0  0  0  0  0  0  0  0
   -9.0616   -0.8617   -7.8155 H   0  0  0  0  0  0  0  0  0  0  0  0
   -8.3013   -2.4891   -7.8155 H   0  0  0  0  0  0  0  0  0  0  0  0
   -7.9900   -0.6630   -9.8830 H   0  0  0  0  0  0  0  0  0  0  0  0
   -7.6527   -2.0559  -11.7676 H   0  0  0  0  0  0  0  0  0  0  0  0
   -6.6259   -0.6924  -16.7569 H   0  0  0  0  0  0  0  0  0  0  0  0
   -7.7910    1.2584  -17.7838 H   0  0  0  0  0  0  0  0  0  0  0  0
  -10.5140    2.5770  -17.0840 H   0  0  0  0  0  0  0  0  0  0  0  0
  -10.9620    4.5900  -17.3090 H   0  0  0  0  0  0  0  0  0  0  0  0
   -9.0901    7.1150  -16.3052 H   0  0  0  0  0  0  0  0  0  0  0  0
   -8.7796    9.3130  -17.4374 H   0  0  0  0  0  0  0  0  0  0  0  0
  -10.4747    5.4132  -20.0174 H   0  0  0  0  0  0  0  0  0  0  0  0
  -10.0527    1.8303  -14.1471 H   0  0  0  0  0  0  0  0  0  0  0  0
   -8.8950   -0.1265  -13.1241 H   0  0  0  0  0  0  0  0  0  0  0  0
   -4.6114   -0.4561  -14.4108 H   0  0  0  0  0  0  0  0  0  0  0  0
   -3.2097    0.0025  -12.4316 H   0  0  0  0  0  0  0  0  0  0  0  0
  1  2  1  0
  2  3  1  0
  3  4  2  0
  3  5  1  0
  5  6  2  0
  6  7  1  0
  7  8  1  0
  8  9  1  0
  9 10  1  0
 10 11  2  0
 11 12  1  0
 12 13  1  0
 13 14  1  0
 14 15  2  0
 14 16  1  0
 16 17  1  0
 17 18  1  0
 18 19  2  0
 19 20  1  0
 20 21  1  0
 20 22  2  0
 22 23  1  0
 23 24  1  0
 23 25  1  0
 23 26  1  0
 22 27  1  0
 12 28  2  0
 28 29  1  0
  7 30  2  0
 30 31  1  0
 31 32  2  0
 32  5  1  0
 29  9  2  0
 27 17  2  0
  1 33  1  0
  1 34  1  0
  1 35  1  0
  2 36  1  0
  6 37  1  0
 10 38  1  0
 11 39  1  0
 13 40  1  0
 16 41  1  0
 18 42  1  0
 19 43  1  0
 27 44  1  0
 28 45  1  0
 29 46  1  0
 30 47  1  0
 31 48  1  0
M  END
>  <meeko>  (3) 
{"is_sidechain": false}

>  <vina_affinity_kcal_mol>  (3) 
-8.404

>  <pose_rank>  (3) 
3

$$$$

     RDKit          3D

 48 50  0  0  0  0  0  0  0  0999 V2000
  -20.0440   -0.5570   -6.4560 C   0  0  0  0  0  0  0  0  0  0  0  0
  -18.6500   -0.7990   -6.7090 N   0  0  0  0  0  0  0  0  0  0  0  0
  -17.6560   -0.3270   -5.8790 C   0  0  0  0  0  0  0  0  0  0  0  0
  -17.8500    0.4170   -4.9250 O   0  0  0  0  0  0  0  0  0  0  0  0
  -16.2810   -0.8100   -6.2300 C   0  0  0  0  0  0  0  0  0  0  0  0
  -15.9860   -1.1510   -7.5400 C   0  0  0  0  0  0  0  0  0  0  0  0
  -14.7020   -1.6080   -7.8090 C   0  0  0  0  0  0  0  0  0  0  0  0
  -14.4090   -1.9140   -9.1190 O   0  0  0  0  0  0  0  0  0  0  0  0
  -13.6170   -1.0220   -9.8030 C   0  0  0  0  0  0  0  0  0  0  0  0
  -14.0390    0.2760  -10.0940 C   0  0  0  0  0  0  0  0  0  0  0  0
  -13.1770    1.1500  -10.7620 C   0  0  0  0  0  0  0  0  0  0  0  0
  -11.8890    0.7410  -11.1350 C   0  0  0  0  0  0  0  0  0  0  0  0
  -11.0780    1.6850  -11.7980 N   0  0  0  0  0  0  0  0  0  0  0  0
  -10.9170    1.8390  -13.1680 C   0  0  0  0  0  0  0  0  0  0  0  0
  -11.5540    1.2410  -14.0230 O   0  0  0  0  0  0  0  0  0  0  0  0
   -9.9250    2.7760  -13.4270 N   0  0  0  0  0  0  0  0  0  0  0  0
   -9.5440    3.2940  -14.6820 C   0  0  0  0  0  0  0  0  0  0  0  0
  -10.3480    4.1270  -15.4570 C   0  0  0  0  0  0  0  0  0  0  0  0
   -9.8890    4.6070  -16.6880 C   0  0  0  0  0  0  0  0  0  0  0  0
   -8.6190    4.2650  -17.1560 C   0  0  0  0  0  0  0  0  0  0  0  0
   -8.1300    4.9000  -18.6820 Cl  0  0  0  0  0  0  0  0  0  0  0  0
   -7.7890    3.4380  -16.3940 C   0  0  0  0  0  0  0  0  0  0  0  0
   -6.4140    3.0530  -16.8660 C   0  0  0  0  0  0  0  0  0  0  0  0
   -6.4250    2.3700  -18.0430 F   0  0  0  0  0  0  0  0  0  0  0  0
   -5.7360    2.2810  -15.9740 F   0  0  0  0  0  0  0  0  0  0  0  0
   -5.6090    4.1350  -17.0880 F   0  0  0  0  0  0  0  0  0  0  0  0
   -8.2670    2.9610  -15.1540 C   0  0  0  0  0  0  0  0  0  0  0  0
  -11.4700   -0.5520  -10.8070 C   0  0  0  0  0  0  0  0  0  0  0  0
  -12.3280   -1.4280  -10.1370 C   0  0  0  0  0  0  0  0  0  0  0  0
  -13.7540   -1.6740   -6.7900 C   0  0  0  0  0  0  0  0  0  0  0  0
  -14.1430   -1.3080   -5.5140 C   0  0  0  0  0  0  0  0  0  0  0  0
  -15.3850   -0.8830   -5.2010 N   0  0  0  0  0  0  0  0  0  0  0  0
  -20.2198   -0.5265   -5.3706 H   0  0  0  0  0  0  0  0  0  0  0  0
  -20.3359    0.4053   -6.9019 H   0  0  0  0  0  0  0  0  0  0  0  0
  -20.6432   -1.3646   -6.9019 H   0  0  0  0  0  0  0  0  0  0  0  0
  -18.3640   -1.4900   -7.3970 H   0  0  0  0  0  0  0  0  0  0  0  0
  -16.7395   -1.0633   -8.3365 H   0  0  0  0  0  0  0  0  0  0  0  0
  -15.0449    0.6095   -9.7991 H   0  0  0  0  0  0  0  0  0  0  0  0
  -13.5130    2.1705  -10.9978 H   0  0  0  0  0  0  0  0  0  0  0  0
  -10.7090    2.4280  -11.2250 H   0  0  0  0  0  0  0  0  0  0  0  0
   -9.3110    2.9830  -12.6530 H   0  0  0  0  0  0  0  0  0  0  0  0
  -11.3492    4.4087  -15.0989 H   0  0  0  0  0  0  0  0  0  0  0  0
  -10.5349    5.2602  -17.2931 H   0  0  0  0  0  0  0  0  0  0  0  0
   -7.6215    2.3123  -14.5436 H   0  0  0  0  0  0  0  0  0  0  0  0
  -10.4565   -0.8823  -11.0786 H   0  0  0  0  0  0  0  0  0  0  0  0
  -11.9846   -2.4392   -9.8733 H   0  0  0  0  0  0  0  0  0  0  0  0
  -12.7259   -2.0075   -6.9943 H   0  0  0  0  0  0  0  0  0  0  0  0
  -13.3969   -1.3668   -4.7079 H   0  0  0  0  0  0  0  0  0  0  0  0
  1  2  1  0
  2  3  1  0
  3  4  2  0
  3  5  1  0
  5  6  2  0
  6  7  1  0
  7  8  1  0
  8  9  1  0
  9 10  1  0
 10 11  2  0
 11 12  1  0
 12 13  1  0
 13 14  1  0
 14 15  2  0
 14 16  1  0
 16 17  1  0
 17 18  1  0
 18 19  2  0
 19 20  1  0
 20 21  1  0
 20 22  2  0
 22 23  1  0
 23 24  1  0
 23 25  1  0
 23 26  1  0
 22 27  1  0
 12 28  2  0
 28 29  1  0
  7 30  2  0
 30 31  1  0
 31 32  2  0
 32  5  1  0
 29  9  2  0
 27 17  2  0
  1 33  1  0
  1 34  1  0
  1 35  1  0
  2 36  1  0
  6 37  1  0
 10 38  1  0
 11 39  1  0
 13 40  1  0
 16 41  1  0
 18 42  1  0
 19 43  1  0
 27 44  1  0
 28 45  1  0
 29 46  1  0
 30 47  1  0
 31 48  1  0
M  END
>  <meeko>  (4) 
{"is_sidechain": false}

>  <vina_affinity_kcal_mol>  (4) 
-8.304

>  <pose_rank>  (4) 
4

$$$$

     RDKit          3D

 48 50  0  0  0  0  0  0  0  0999 V2000
  -10.3990   -1.0340   -4.7910 C   0  0  0  0  0  0  0  0  0  0  0  0
  -11.6950   -1.1960   -5.3910 N   0  0  0  0  0  0  0  0  0  0  0  0
  -12.8280   -0.6040   -4.8740 C   0  0  0  0  0  0  0  0  0  0  0  0
  -12.8600    0.0190   -3.8190 O   0  0  0  0  0  0  0  0  0  0  0  0
  -14.0500   -0.7700   -5.7250 C   0  0  0  0  0  0  0  0  0  0  0  0
  -13.9180   -0.9290   -7.0950 C   0  0  0  0  0  0  0  0  0  0  0  0
  -15.0830   -1.0640   -7.8390 C   0  0  0  0  0  0  0  0  0  0  0  0
  -14.9400   -1.2530   -9.1960 O   0  0  0  0  0  0  0  0  0  0  0  0
  -13.9910   -0.4870   -9.8330 C   0  0  0  0  0  0  0  0  0  0  0  0
  -12.6780   -0.9250  -10.0050 C   0  0  0  0  0  0  0  0  0  0  0  0
  -11.7650   -0.1180  -10.6910 C   0  0  0  0  0  0  0  0  0  0  0  0
  -12.1560    1.1220  -11.2140 C   0  0  0  0  0  0  0  0  0  0  0  0
  -11.1780    1.8720  -11.8990 N   0  0  0  0  0  0  0  0  0  0  0  0
  -11.1030    2.1050  -13.2650 C   0  0  0  0  0  0  0  0  0  0  0  0
  -11.9540    1.7820  -14.0810 O   0  0  0  0  0  0  0  0  0  0  0  0
   -9.9180    2.7610  -13.5710 N   0  0  0  0  0  0  0  0  0  0  0  0
   -9.5220    3.2730  -14.8240 C   0  0  0  0  0  0  0  0  0  0  0  0
   -8.4050    2.8290  -15.5280 C   0  0  0  0  0  0  0  0  0  0  0  0
   -8.0880    3.3830  -16.7730 C   0  0  0  0  0  0  0  0  0  0  0  0
   -8.8870    4.3810  -17.3310 C   0  0  0  0  0  0  0  0  0  0  0  0
   -8.4270    5.0090  -18.8700 Cl  0  0  0  0  0  0  0  0  0  0  0  0
  -10.0190    4.8380  -16.6500 C   0  0  0  0  0  0  0  0  0  0  0  0
  -10.9040    5.9100  -17.2240 C   0  0  0  0  0  0  0  0  0  0  0  0
  -10.2640    7.1000  -17.3880 F   0  0  0  0  0  0  0  0  0  0  0  0
  -12.0040    6.1620  -16.4650 F   0  0  0  0  0  0  0  0  0  0  0  0
  -11.3860    5.5900  -18.4620 F   0  0  0  0  0  0  0  0  0  0  0  0
  -10.3250    4.2700  -15.3940 C   0  0  0  0  0  0  0  0  0  0  0  0
  -13.4840    1.5320  -11.0600 C   0  0  0  0  0  0  0  0  0  0  0  0
  -14.4010    0.7260  -10.3770 C   0  0  0  0  0  0  0  0  0  0  0  0
  -16.3230   -1.0760   -7.2040 C   0  0  0  0  0  0  0  0  0  0  0  0
  -16.3520   -0.9150   -5.8300 C   0  0  0  0  0  0  0  0  0  0  0  0
  -15.2490   -0.7550   -5.0700 N   0  0  0  0  0  0  0  0  0  0  0  0
  -10.4980   -1.0464   -3.6955 H   0  0  0  0  0  0  0  0  0  0  0  0
   -9.7422   -1.8570   -5.1091 H   0  0  0  0  0  0  0  0  0  0  0  0
   -9.9650   -0.0746   -5.1091 H   0  0  0  0  0  0  0  0  0  0  0  0
  -11.7850   -1.5900   -6.3240 H   0  0  0  0  0  0  0  0  0  0  0  0
  -12.9284   -0.9476   -7.5750 H   0  0  0  0  0  0  0  0  0  0  0  0
  -12.3626   -1.8993   -9.6035 H   0  0  0  0  0  0  0  0  0  0  0  0
  -10.7279   -0.4605  -10.8216 H   0  0  0  0  0  0  0  0  0  0  0  0
  -10.5680    2.4320  -11.3230 H   0  0  0  0  0  0  0  0  0  0  0  0
   -9.2050    2.7220  -12.8590 H   0  0  0  0  0  0  0  0  0  0  0  0
   -7.7689    2.0387  -15.1029 H   0  0  0  0  0  0  0  0  0  0  0  0
   -7.2002    3.0282  -17.3170 H   0  0  0  0  0  0  0  0  0  0  0  0
  -11.2152    4.6185  -14.8499 H   0  0  0  0  0  0  0  0  0  0  0  0
  -13.8100    2.4954  -11.4790 H   0  0  0  0  0  0  0  0  0  0  0  0
  -15.4463    1.0514  -10.2701 H   0  0  0  0  0  0  0  0  0  0  0  0
  -17.2518   -1.2095   -7.7781 H   0  0  0  0  0  0  0  0  0  0  0  0
  -17.3310   -0.9176   -5.3285 H   0  0  0  0  0  0  0  0  0  0  0  0
  1  2  1  0
  2  3  1  0
  3  4  2  0
  3  5  1  0
  5  6  2  0
  6  7  1  0
  7  8  1  0
  8  9  1  0
  9 10  1  0
 10 11  2  0
 11 12  1  0
 12 13  1  0
 13 14  1  0
 14 15  2  0
 14 16  1  0
 16 17  1  0
 17 18  1  0
 18 19  2  0
 19 20  1  0
 20 21  1  0
 20 22  2  0
 22 23  1  0
 23 24  1  0
 23 25  1  0
 23 26  1  0
 22 27  1  0
 12 28  2  0
 28 29  1  0
  7 30  2  0
 30 31  1  0
 31 32  2  0
 32  5  1  0
 29  9  2  0
 27 17  2  0
  1 33  1  0
  1 34  1  0
  1 35  1  0
  2 36  1  0
  6 37  1  0
 10 38  1  0
 11 39  1  0
 13 40  1  0
 16 41  1  0
 18 42  1  0
 19 43  1  0
 27 44  1  0
 28 45  1  0
 29 46  1  0
 30 47  1  0
 31 48  1  0
M  END
>  <meeko>  (5) 
{"is_sidechain": false}

>  <vina_affinity_kcal_mol>  (5) 
-8.303

>  <pose_rank>  (5) 
5

$$$$

     RDKit          3D

 48 50  0  0  0  0  0  0  0  0999 V2000
  -11.8200   -8.2370   -9.4650 C   0  0  0  0  0  0  0  0  0  0  0  0
  -12.1710   -6.9620   -8.9020 N   0  0  0  0  0  0  0  0  0  0  0  0
  -12.9770   -6.0590   -9.5630 C   0  0  0  0  0  0  0  0  0  0  0  0
  -13.3790   -6.2050  -10.7110 O   0  0  0  0  0  0  0  0  0  0  0  0
  -13.3480   -4.8560   -8.7480 C   0  0  0  0  0  0  0  0  0  0  0  0
  -13.8420   -3.7250   -9.3780 C   0  0  0  0  0  0  0  0  0  0  0  0
  -14.1550   -2.6330   -8.5790 C   0  0  0  0  0  0  0  0  0  0  0  0
  -14.6750   -1.5250   -9.2100 O   0  0  0  0  0  0  0  0  0  0  0  0
  -13.7810   -0.7010   -9.8540 C   0  0  0  0  0  0  0  0  0  0  0  0
  -12.4780   -1.1040  -10.1480 C   0  0  0  0  0  0  0  0  0  0  0  0
  -11.6250   -0.2360  -10.8340 C   0  0  0  0  0  0  0  0  0  0  0  0
  -12.0650    1.0330  -11.2370 C   0  0  0  0  0  0  0  0  0  0  0  0
  -11.1460    1.8450  -11.9330 N   0  0  0  0  0  0  0  0  0  0  0  0
  -11.0440    2.0120  -13.3070 C   0  0  0  0  0  0  0  0  0  0  0  0
  -11.8250    1.5580  -14.1300 O   0  0  0  0  0  0  0  0  0  0  0  0
   -9.9240    2.7740  -13.6110 N   0  0  0  0  0  0  0  0  0  0  0  0
   -9.5370    3.2580  -14.8770 C   0  0  0  0  0  0  0  0  0  0  0  0
   -8.4470    2.7710  -15.5970 C   0  0  0  0  0  0  0  0  0  0  0  0
   -8.1370    3.3000  -16.8550 C   0  0  0  0  0  0  0  0  0  0  0  0
   -8.9160    4.3170  -17.4100 C   0  0  0  0  0  0  0  0  0  0  0  0
   -8.4660    4.9110  -18.9650 Cl  0  0  0  0  0  0  0  0  0  0  0  0
  -10.0190    4.8160  -16.7130 C   0  0  0  0  0  0  0  0  0  0  0  0
  -10.8820    5.9090  -17.2840 C   0  0  0  0  0  0  0  0  0  0  0  0
  -10.2460    7.1100  -17.3550 F   0  0  0  0  0  0  0  0  0  0  0  0
  -12.0250    6.1150  -16.5760 F   0  0  0  0  0  0  0  0  0  0  0  0
  -11.2920    5.6450  -18.5600 F   0  0  0  0  0  0  0  0  0  0  0  0
  -10.3190    4.2730  -15.4450 C   0  0  0  0  0  0  0  0  0  0  0  0
  -13.3840    1.4080  -10.9630 C   0  0  0  0  0  0  0  0  0  0  0  0
  -14.2410    0.5410  -10.2800 C   0  0  0  0  0  0  0  0  0  0  0  0
  -14.0080   -2.7110   -7.1960 C   0  0  0  0  0  0  0  0  0  0  0  0
  -13.5110   -3.8860   -6.6600 C   0  0  0  0  0  0  0  0  0  0  0  0
  -13.1690   -4.9630   -7.3980 N   0  0  0  0  0  0  0  0  0  0  0  0
  -11.6226   -8.9539   -8.6544 H   0  0  0  0  0  0  0  0  0  0  0  0
  -12.6503   -8.6048  -10.0857 H   0  0  0  0  0  0  0  0  0  0  0  0
  -10.9184   -8.1280  -10.0857 H   0  0  0  0  0  0  0  0  0  0  0  0
  -11.9980   -6.7670   -7.9190 H   0  0  0  0  0  0  0  0  0  0  0  0
  -13.9809   -3.6933  -10.4687 H   0  0  0  0  0  0  0  0  0  0  0  0
  -12.1244   -2.0995   -9.8414 H   0  0  0  0  0  0  0  0  0  0  0  0
  -10.5960   -0.5517  -11.0607 H   0  0  0  0  0  0  0  0  0  0  0  0
  -10.6200    2.4960  -11.3700 H   0  0  0  0  0  0  0  0  0  0  0  0
   -9.2370    2.8490  -12.8750 H   0  0  0  0  0  0  0  0  0  0  0  0
   -7.8273    1.9666  -15.1740 H   0  0  0  0  0  0  0  0  0  0  0  0
   -7.2717    2.9110  -17.4116 H   0  0  0  0  0  0  0  0  0  0  0  0
  -11.1876    4.6558  -14.8892 H   0  0  0  0  0  0  0  0  0  0  0  0
  -13.7498    2.3933  -11.2877 H   0  0  0  0  0  0  0  0  0  0  0  0
  -15.2801    0.8407  -10.0790 H   0  0  0  0  0  0  0  0  0  0  0  0
  -14.2790   -1.8636   -6.5491 H   0  0  0  0  0  0  0  0  0  0  0  0
  -13.3874   -3.9457   -5.5686 H   0  0  0  0  0  0  0  0  0  0  0  0
  1  2  1  0
  2  3  1  0
  3  4  2  0
  3  5  1  0
  5  6  2  0
  6  7  1  0
  7  8  1  0
  8  9  1  0
  9 10  1  0
 10 11  2  0
 11 12  1  0
 12 13  1  0
 13 14  1  0
 14 15  2  0
 14 16  1  0
 16 17  1  0
 17 18  1  0
 18 19  2  0
 19 20  1  0
 20 21  1  0
 20 22  2  0
 22 23  1  0
 23 24  1  0
 23 25  1  0
 23 26  1  0
 22 27  1  0
 12 28  2  0
 28 29  1  0
  7 30  2  0
 30 31  1  0
 31 32  2  0
 32  5  1  0
 29  9  2  0
 27 17  2  0
  1 33  1  0
  1 34  1  0
  1 35  1  0
  2 36  1  0
  6 37  1  0
 10 38  1  0
 11 39  1  0
 13 40  1  0
 16 41  1  0
 18 42  1  0
 19 43  1  0
 27 44  1  0
 28 45  1  0
 29 46  1  0
 30 47  1  0
 31 48  1  0
M  END
>  <meeko>  (6) 
{"is_sidechain": false}

>  <vina_affinity_kcal_mol>  (6) 
-8.252

>  <pose_rank>  (6) 
6

$$$$

     RDKit          3D

 48 50  0  0  0  0  0  0  0  0999 V2000
   -8.1470   -4.1890   -7.0780 C   0  0  0  0  0  0  0  0  0  0  0  0
   -9.3350   -3.7830   -7.7780 N   0  0  0  0  0  0  0  0  0  0  0  0
   -9.9820   -4.6070   -8.6750 C   0  0  0  0  0  0  0  0  0  0  0  0
   -9.5600   -5.6990   -9.0360 O   0  0  0  0  0  0  0  0  0  0  0  0
  -11.2810   -4.0590   -9.1850 C   0  0  0  0  0  0  0  0  0  0  0  0
  -11.6770   -2.7810   -8.8270 C   0  0  0  0  0  0  0  0  0  0  0  0
  -12.8960   -2.3280   -9.3130 C   0  0  0  0  0  0  0  0  0  0  0  0
  -13.2660   -1.0450   -8.9770 O   0  0  0  0  0  0  0  0  0  0  0  0
  -13.1000   -0.0780   -9.9410 C   0  0  0  0  0  0  0  0  0  0  0  0
  -14.1370    0.7740  -10.3240 C   0  0  0  0  0  0  0  0  0  0  0  0
  -13.9010    1.7610  -11.2850 C   0  0  0  0  0  0  0  0  0  0  0  0
  -12.6320    1.9090  -11.8630 C   0  0  0  0  0  0  0  0  0  0  0  0
  -12.4740    2.9340  -12.8190 N   0  0  0  0  0  0  0  0  0  0  0  0
  -11.5170    3.0080  -13.8210 C   0  0  0  0  0  0  0  0  0  0  0  0
  -10.7220    2.1220  -14.1000 O   0  0  0  0  0  0  0  0  0  0  0  0
  -11.5940    4.2370  -14.4630 N   0  0  0  0  0  0  0  0  0  0  0  0
  -10.8740    4.6540  -15.6010 C   0  0  0  0  0  0  0  0  0  0  0  0
  -11.3380    5.6020  -16.5120 C   0  0  0  0  0  0  0  0  0  0  0  0
  -10.5550    5.9690  -17.6110 C   0  0  0  0  0  0  0  0  0  0  0  0
   -9.2980    5.3970  -17.8110 C   0  0  0  0  0  0  0  0  0  0  0  0
   -8.3960    5.9060  -19.1900 Cl  0  0  0  0  0  0  0  0  0  0  0  0
   -8.8050    4.4510  -16.9080 C   0  0  0  0  0  0  0  0  0  0  0  0
   -7.4520    3.8180  -17.0910 C   0  0  0  0  0  0  0  0  0  0  0  0
   -7.0930    3.0160  -16.0510 F   0  0  0  0  0  0  0  0  0  0  0  0
   -6.4510    4.7260  -17.2470 F   0  0  0  0  0  0  0  0  0  0  0  0
   -7.3880    3.0190  -18.1970 F   0  0  0  0  0  0  0  0  0  0  0  0
   -9.6070    4.0910  -15.8040 C   0  0  0  0  0  0  0  0  0  0  0  0
  -11.5970    1.0690  -11.4450 C   0  0  0  0  0  0  0  0  0  0  0  0
  -11.8280    0.0830  -10.4810 C   0  0  0  0  0  0  0  0  0  0  0  0
  -13.6540   -3.1310  -10.1620 C   0  0  0  0  0  0  0  0  0  0  0  0
  -13.1720   -4.3920  -10.4660 C   0  0  0  0  0  0  0  0  0  0  0  0
  -12.0070   -4.8840   -9.9960 N   0  0  0  0  0  0  0  0  0  0  0  0
   -8.3219   -4.1292   -5.9936 H   0  0  0  0  0  0  0  0  0  0  0  0
   -7.8955   -5.2241   -7.3523 H   0  0  0  0  0  0  0  0  0  0  0  0
   -7.3146   -3.5243   -7.3523 H   0  0  0  0  0  0  0  0  0  0  0  0
   -9.8460   -2.9530   -7.4870 H   0  0  0  0  0  0  0  0  0  0  0  0
  -11.0493   -2.1487   -8.1819 H   0  0  0  0  0  0  0  0  0  0  0  0
  -15.1344    0.6693   -9.8721 H   0  0  0  0  0  0  0  0  0  0  0  0
  -14.7196    2.4289  -11.5913 H   0  0  0  0  0  0  0  0  0  0  0  0
  -13.2330    3.5960  -12.8860 H   0  0  0  0  0  0  0  0  0  0  0  0
  -12.0980    4.9550  -13.9650 H   0  0  0  0  0  0  0  0  0  0  0  0
  -12.3255    6.0638  -16.3654 H   0  0  0  0  0  0  0  0  0  0  0  0
  -10.9336    6.7157  -18.3246 H   0  0  0  0  0  0  0  0  0  0  0  0
   -9.2280    3.3499  -15.0849 H   0  0  0  0  0  0  0  0  0  0  0  0
  -10.5923    1.1842  -11.8777 H   0  0  0  0  0  0  0  0  0  0  0  0
  -11.0038   -0.5656  -10.1494 H   0  0  0  0  0  0  0  0  0  0  0  0
  -14.6073   -2.7734  -10.5784 H   0  0  0  0  0  0  0  0  0  0  0  0
  -13.7738   -5.0304  -11.1295 H   0  0  0  0  0  0  0  0  0  0  0  0
  1  2  1  0
  2  3  1  0
  3  4  2  0
  3  5  1  0
  5  6  2  0
  6  7  1  0
  7  8  1  0
  8  9  1  0
  9 10  1  0
 10 11  2  0
 11 12  1  0
 12 13  1  0
 13 14  1  0
 14 15  2  0
 14 16  1  0
 16 17  1  0
 17 18  1  0
 18 19  2  0
 19 20  1  0
 20 21  1  0
 20 22  2  0
 22 23  1  0
 23 24  1  0
 23 25  1  0
 23 26  1  0
 22 27  1  0
 12 28  2  0
 28 29  1  0
  7 30  2  0
 30 31  1  0
 31 32  2  0
 32  5  1  0
 29  9  2  0
 27 17  2  0
  1 33  1  0
  1 34  1  0
  1 35  1  0
  2 36  1  0
  6 37  1  0
 10 38  1  0
 11 39  1  0
 13 40  1  0
 16 41  1  0
 18 42  1  0
 19 43  1  0
 27 44  1  0
 28 45  1  0
 29 46  1  0
 30 47  1  0
 31 48  1  0
M  END
>  <meeko>  (7) 
{"is_sidechain": false}

>  <vina_affinity_kcal_mol>  (7) 
-8.112

>  <pose_rank>  (7) 
7

$$$$

     RDKit          3D

 48 50  0  0  0  0  0  0  0  0999 V2000
   -3.1730    0.3080  -18.8660 C   0  0  0  0  0  0  0  0  0  0  0  0
   -4.0490    1.0610  -18.0110 N   0  0  0  0  0  0  0  0  0  0  0  0
   -5.1160    0.4840  -17.3550 C   0  0  0  0  0  0  0  0  0  0  0  0
   -5.4790   -0.6750  -17.5150 O   0  0  0  0  0  0  0  0  0  0  0  0
   -5.8160    1.4000  -16.3960 C   0  0  0  0  0  0  0  0  0  0  0  0
   -7.0360    1.9570  -16.7430 C   0  0  0  0  0  0  0  0  0  0  0  0
   -7.6340    2.8110  -15.8260 C   0  0  0  0  0  0  0  0  0  0  0  0
   -8.8610    3.3350  -16.1670 O   0  0  0  0  0  0  0  0  0  0  0  0
   -9.9130    3.0500  -15.3280 C   0  0  0  0  0  0  0  0  0  0  0  0
  -10.1070    1.7790  -14.7860 C   0  0  0  0  0  0  0  0  0  0  0  0
  -11.1750    1.5560  -13.9120 C   0  0  0  0  0  0  0  0  0  0  0  0
  -12.0480    2.5970  -13.5670 C   0  0  0  0  0  0  0  0  0  0  0  0
  -13.0950    2.2920  -12.6730 N   0  0  0  0  0  0  0  0  0  0  0  0
  -13.0190    1.5210  -11.5220 C   0  0  0  0  0  0  0  0  0  0  0  0
  -11.9860    1.0760  -11.0410 O   0  0  0  0  0  0  0  0  0  0  0  0
  -14.2880    1.3300  -10.9920 N   0  0  0  0  0  0  0  0  0  0  0  0
  -14.6220    0.7030   -9.7750 C   0  0  0  0  0  0  0  0  0  0  0  0
  -15.1390    1.3750   -8.6690 C   0  0  0  0  0  0  0  0  0  0  0  0
  -15.4550    0.6750   -7.4990 C   0  0  0  0  0  0  0  0  0  0  0  0
  -15.2630   -0.7050   -7.4240 C   0  0  0  0  0  0  0  0  0  0  0  0
  -15.6780   -1.4920   -5.9470 Cl  0  0  0  0  0  0  0  0  0  0  0  0
  -14.7540   -1.4050   -8.5210 C   0  0  0  0  0  0  0  0  0  0  0  0
  -14.5380   -2.8930   -8.4750 C   0  0  0  0  0  0  0  0  0  0  0  0
  -15.6390   -3.5800   -8.0630 F   0  0  0  0  0  0  0  0  0  0  0  0
  -13.5180   -3.2630   -7.6550 F   0  0  0  0  0  0  0  0  0  0  0  0
  -14.2260   -3.4200   -9.6970 F   0  0  0  0  0  0  0  0  0  0  0  0
  -14.4390   -0.6840   -9.6940 C   0  0  0  0  0  0  0  0  0  0  0  0
  -11.8200    3.8720  -14.0930 C   0  0  0  0  0  0  0  0  0  0  0  0
  -10.7520    4.0990  -14.9650 C   0  0  0  0  0  0  0  0  0  0  0  0
   -7.0300    3.0500  -14.5930 C   0  0  0  0  0  0  0  0  0  0  0  0
   -5.8130    2.4430  -14.3370 C   0  0  0  0  0  0  0  0  0  0  0  0
   -5.1820    1.6270  -15.2070 N   0  0  0  0  0  0  0  0  0  0  0  0
   -2.4816   -0.2863  -18.2505 H   0  0  0  0  0  0  0  0  0  0  0  0
   -3.7689   -0.3641  -19.5009 H   0  0  0  0  0  0  0  0  0  0  0  0
   -2.5980    0.9981  -19.5009 H   0  0  0  0  0  0  0  0  0  0  0  0
   -3.7930    1.9970  -17.7070 H   0  0  0  0  0  0  0  0  0  0  0  0
   -7.5128    1.7313  -17.7083 H   0  0  0  0  0  0  0  0  0  0  0  0
   -9.4234    0.9571  -15.0450 H   0  0  0  0  0  0  0  0  0  0  0  0
  -11.3321    0.5523  -13.4902 H   0  0  0  0  0  0  0  0  0  0  0  0
  -13.9450    2.8230  -12.7920 H   0  0  0  0  0  0  0  0  0  0  0  0
  -15.0540    1.5170  -11.6230 H   0  0  0  0  0  0  0  0  0  0  0  0
  -15.2997    2.4622   -8.7159 H   0  0  0  0  0  0  0  0  0  0  0  0
  -15.8582    1.2174   -6.6311 H   0  0  0  0  0  0  0  0  0  0  0  0
  -14.0403   -1.2244  -10.5652 H   0  0  0  0  0  0  0  0  0  0  0  0
  -12.4864    4.7029  -13.8183 H   0  0  0  0  0  0  0  0  0  0  0  0
  -10.5743    5.1082  -15.3650 H   0  0  0  0  0  0  0  0  0  0  0  0
   -7.5064    3.7016  -13.8457 H   0  0  0  0  0  0  0  0  0  0  0  0
   -5.3316    2.6371  -13.3672 H   0  0  0  0  0  0  0  0  0  0  0  0
  1  2  1  0
  2  3  1  0
  3  4  2  0
  3  5  1  0
  5  6  2  0
  6  7  1  0
  7  8  1  0
  8  9  1  0
  9 10  1  0
 10 11  2  0
 11 12  1  0
 12 13  1  0
 13 14  1  0
 14 15  2  0
 14 16  1  0
 16 17  1  0
 17 18  1  0
 18 19  2  0
 19 20  1  0
 20 21  1  0
 20 22  2  0
 22 23  1  0
 23 24  1  0
 23 25  1  0
 23 26  1  0
 22 27  1  0
 12 28  2  0
 28 29  1  0
  7 30  2  0
 30 31  1  0
 31 32  2  0
 32  5  1  0
 29  9  2  0
 27 17  2  0
  1 33  1  0
  1 34  1  0
  1 35  1  0
  2 36  1  0
  6 37  1  0
 10 38  1  0
 11 39  1  0
 13 40  1  0
 16 41  1  0
 18 42  1  0
 19 43  1  0
 27 44  1  0
 28 45  1  0
 29 46  1  0
 30 47  1  0
 31 48  1  0
M  END
>  <meeko>  (8) 
{"is_sidechain": false}

>  <vina_affinity_kcal_mol>  (8) 
-8.1

>  <pose_rank>  (8) 
8

$$$$

     RDKit          3D

 48 50  0  0  0  0  0  0  0  0999 V2000
   -4.8950   -7.9770  -18.7650 C   0  0  0  0  0  0  0  0  0  0  0  0
   -4.4330   -7.1560  -17.6800 N   0  0  0  0  0  0  0  0  0  0  0  0
   -4.7770   -7.4030  -16.3680 C   0  0  0  0  0  0  0  0  0  0  0  0
   -5.5760   -8.2620  -16.0150 O   0  0  0  0  0  0  0  0  0  0  0  0
   -4.0760   -6.5270  -15.3740 C   0  0  0  0  0  0  0  0  0  0  0  0
   -3.7110   -5.2390  -15.7290 C   0  0  0  0  0  0  0  0  0  0  0  0
   -3.0500   -4.4750  -14.7760 C   0  0  0  0  0  0  0  0  0  0  0  0
   -2.7180   -3.1860  -15.1290 O   0  0  0  0  0  0  0  0  0  0  0  0
   -3.7510   -2.3620  -15.5130 C   0  0  0  0  0  0  0  0  0  0  0  0
   -4.6620   -1.8360  -14.5970 C   0  0  0  0  0  0  0  0  0  0  0  0
   -5.6710   -0.9770  -15.0420 C   0  0  0  0  0  0  0  0  0  0  0  0
   -5.7730   -0.6310  -16.3970 C   0  0  0  0  0  0  0  0  0  0  0  0
   -6.8130    0.2480  -16.7630 N   0  0  0  0  0  0  0  0  0  0  0  0
   -6.7400    1.6270  -16.8930 C   0  0  0  0  0  0  0  0  0  0  0  0
   -5.7140    2.2870  -16.8180 O   0  0  0  0  0  0  0  0  0  0  0  0
   -8.0060    2.1500  -17.1230 N   0  0  0  0  0  0  0  0  0  0  0  0
   -8.3370    3.4880  -17.4210 C   0  0  0  0  0  0  0  0  0  0  0  0
   -7.6440    4.2770  -18.3370 C   0  0  0  0  0  0  0  0  0  0  0  0
   -8.0460    5.5940  -18.5830 C   0  0  0  0  0  0  0  0  0  0  0  0
   -9.1490    6.1360  -17.9210 C   0  0  0  0  0  0  0  0  0  0  0  0
   -9.5780    7.7660  -18.2830 Cl  0  0  0  0  0  0  0  0  0  0  0  0
   -9.8670    5.3640  -17.0040 C   0  0  0  0  0  0  0  0  0  0  0  0
  -11.0620    5.9150  -16.2760 C   0  0  0  0  0  0  0  0  0  0  0  0
  -12.1670    6.0180  -17.0640 F   0  0  0  0  0  0  0  0  0  0  0  0
  -10.8460    7.1490  -15.7460 F   0  0  0  0  0  0  0  0  0  0  0  0
  -11.4460    5.1340  -15.2230 F   0  0  0  0  0  0  0  0  0  0  0  0
   -9.4490    4.0370  -16.7660 C   0  0  0  0  0  0  0  0  0  0  0  0
   -4.8320   -1.1410  -17.2960 C   0  0  0  0  0  0  0  0  0  0  0  0
   -3.8200   -1.9980  -16.8550 C   0  0  0  0  0  0  0  0  0  0  0  0
   -2.8120   -4.9920  -13.5050 C   0  0  0  0  0  0  0  0  0  0  0  0
   -3.2200   -6.2880  -13.2430 C   0  0  0  0  0  0  0  0  0  0  0  0
   -3.8410   -7.0760  -14.1450 N   0  0  0  0  0  0  0  0  0  0  0  0
   -5.3969   -8.8690  -18.3619 H   0  0  0  0  0  0  0  0  0  0  0  0
   -5.6036   -7.4048  -19.3818 H   0  0  0  0  0  0  0  0  0  0  0  0
   -4.0381   -8.2857  -19.3818 H   0  0  0  0  0  0  0  0  0  0  0  0
   -3.6820   -6.4860  -17.8240 H   0  0  0  0  0  0  0  0  0  0  0  0
   -3.9361   -4.8365  -16.7277 H   0  0  0  0  0  0  0  0  0  0  0  0
   -4.5869   -2.0956  -13.5307 H   0  0  0  0  0  0  0  0  0  0  0  0
   -6.3935   -0.5676  -14.3207 H   0  0  0  0  0  0  0  0  0  0  0  0
   -7.6480   -0.1850  -17.1270 H   0  0  0  0  0  0  0  0  0  0  0  0
   -8.7760    1.5400  -16.8950 H   0  0  0  0  0  0  0  0  0  0  0  0
   -6.7758    3.8617  -18.8697 H   0  0  0  0  0  0  0  0  0  0  0  0
   -7.4878    6.2083  -19.3048 H   0  0  0  0  0  0  0  0  0  0  0  0
  -10.0091    3.4184  -16.0493 H   0  0  0  0  0  0  0  0  0  0  0  0
   -4.8885   -0.8655  -18.3594 H   0  0  0  0  0  0  0  0  0  0  0  0
   -3.0777   -2.3851  -17.5685 H   0  0  0  0  0  0  0  0  0  0  0  0
   -2.3143   -4.3879  -12.7321 H   0  0  0  0  0  0  0  0  0  0  0  0
   -3.0268   -6.6996  -12.2414 H   0  0  0  0  0  0  0  0  0  0  0  0
  1  2  1  0
  2  3  1  0
  3  4  2  0
  3  5  1  0
  5  6  2  0
  6  7  1  0
  7  8  1  0
  8  9  1  0
  9 10  1  0
 10 11  2  0
 11 12  1  0
 12 13  1  0
 13 14  1  0
 14 15  2  0
 14 16  1  0
 16 17  1  0
 17 18  1  0
 18 19  2  0
 19 20  1  0
 20 21  1  0
 20 22  2  0
 22 23  1  0
 23 24  1  0
 23 25  1  0
 23 26  1  0
 22 27  1  0
 12 28  2  0
 28 29  1  0
  7 30  2  0
 30 31  1  0
 31 32  2  0
 32  5  1  0
 29  9  2  0
 27 17  2  0
  1 33  1  0
  1 34  1  0
  1 35  1  0
  2 36  1  0
  6 37  1  0
 10 38  1  0
 11 39  1  0
 13 40  1  0
 16 41  1  0
 18 42  1  0
 19 43  1  0
 27 44  1  0
 28 45  1  0
 29 46  1  0
 30 47  1  0
 31 48  1  0
M  END
>  <meeko>  (9) 
{"is_sidechain": false}

>  <vina_affinity_kcal_mol>  (9) 
-7.973

>  <pose_rank>  (9) 
9

$$$$

     RDKit          3D

 48 50  0  0  0  0  0  0  0  0999 V2000
  -10.1890    7.5860  -21.9600 C   0  0  0  0  0  0  0  0  0  0  0  0
  -10.0320    6.7720  -20.7850 N   0  0  0  0  0  0  0  0  0  0  0  0
   -9.7240    7.3070  -19.5520 C   0  0  0  0  0  0  0  0  0  0  0  0
   -9.4570    8.4870  -19.3590 O   0  0  0  0  0  0  0  0  0  0  0  0
   -9.7520    6.3140  -18.4280 C   0  0  0  0  0  0  0  0  0  0  0  0
   -8.7760    5.3340  -18.3530 C   0  0  0  0  0  0  0  0  0  0  0  0
   -8.8560    4.4300  -17.3010 C   0  0  0  0  0  0  0  0  0  0  0  0
   -7.8640    3.4790  -17.2170 O   0  0  0  0  0  0  0  0  0  0  0  0
   -7.9710    2.5590  -16.2000 C   0  0  0  0  0  0  0  0  0  0  0  0
   -7.5890    2.8510  -14.8910 C   0  0  0  0  0  0  0  0  0  0  0  0
   -7.7520    1.8880  -13.8920 C   0  0  0  0  0  0  0  0  0  0  0  0
   -8.3040    0.6330  -14.1890 C   0  0  0  0  0  0  0  0  0  0  0  0
   -8.4430   -0.2800  -13.1230 N   0  0  0  0  0  0  0  0  0  0  0  0
   -9.5770   -0.5100  -12.3570 C   0  0  0  0  0  0  0  0  0  0  0  0
  -10.6800   -0.0260  -12.5700 O   0  0  0  0  0  0  0  0  0  0  0  0
   -9.2770   -1.3740  -11.3120 N   0  0  0  0  0  0  0  0  0  0  0  0
  -10.1760   -1.9390  -10.3850 C   0  0  0  0  0  0  0  0  0  0  0  0
  -10.2030   -1.6160   -9.0290 C   0  0  0  0  0  0  0  0  0  0  0  0
  -11.1360   -2.2150   -8.1770 C   0  0  0  0  0  0  0  0  0  0  0  0
  -12.0590   -3.1390   -8.6710 C   0  0  0  0  0  0  0  0  0  0  0  0
  -13.1760   -3.8300   -7.5540 Cl  0  0  0  0  0  0  0  0  0  0  0  0
  -12.0600   -3.4740  -10.0280 C   0  0  0  0  0  0  0  0  0  0  0  0
  -13.0430   -4.4630  -10.5930 C   0  0  0  0  0  0  0  0  0  0  0  0
  -14.3380   -4.1450  -10.3210 F   0  0  0  0  0  0  0  0  0  0  0  0
  -12.8490   -5.7310  -10.1410 F   0  0  0  0  0  0  0  0  0  0  0  0
  -12.9760   -4.5530  -11.9550 F   0  0  0  0  0  0  0  0  0  0  0  0
  -11.1110   -2.8620  -10.8750 C   0  0  0  0  0  0  0  0  0  0  0  0
   -8.7120    0.3680  -15.4990 C   0  0  0  0  0  0  0  0  0  0  0  0
   -8.5530    1.3310  -16.5010 C   0  0  0  0  0  0  0  0  0  0  0  0
   -9.8660    4.5510  -16.3490 C   0  0  0  0  0  0  0  0  0  0  0  0
  -10.7920    5.5670  -16.5080 C   0  0  0  0  0  0  0  0  0  0  0  0
  -10.7690    6.4510  -17.5260 N   0  0  0  0  0  0  0  0  0  0  0  0
  -10.3895    8.6256  -21.6617 H   0  0  0  0  0  0  0  0  0  0  0  0
   -9.2669    7.5476  -22.5585 H   0  0  0  0  0  0  0  0  0  0  0  0
  -11.0307    7.2074  -22.5585 H   0  0  0  0  0  0  0  0  0  0  0  0
  -10.3350    5.8020  -20.7870 H   0  0  0  0  0  0  0  0  0  0  0  0
   -7.9686    5.2738  -19.0977 H   0  0  0  0  0  0  0  0  0  0  0  0
   -7.1615    3.8345  -14.6462 H   0  0  0  0  0  0  0  0  0  0  0  0
   -7.4440    2.1164  -12.8610 H   0  0  0  0  0  0  0  0  0  0  0  0
   -7.6960   -0.9490  -13.0160 H   0  0  0  0  0  0  0  0  0  0  0  0
   -8.2960   -1.4760  -11.1020 H   0  0  0  0  0  0  0  0  0  0  0  0
   -9.4858   -0.8853   -8.6268 H   0  0  0  0  0  0  0  0  0  0  0  0
  -11.1429   -1.9560   -7.1080 H   0  0  0  0  0  0  0  0  0  0  0  0
  -11.1048   -3.1153  -11.9454 H   0  0  0  0  0  0  0  0  0  0  0  0
   -9.1617   -0.6055  -15.7441 H   0  0  0  0  0  0  0  0  0  0  0  0
   -8.8879    1.1178  -17.5268 H   0  0  0  0  0  0  0  0  0  0  0  0
   -9.9256    3.8591  -15.4959 H   0  0  0  0  0  0  0  0  0  0  0  0
  -11.5936    5.6588  -15.7603 H   0  0  0  0  0  0  0  0  0  0  0  0
  1  2  1  0
  2  3  1  0
  3  4  2  0
  3  5  1  0
  5  6  2  0
  6  7  1  0
  7  8  1  0
  8  9  1  0
  9 10  1  0
 10 11  2  0
 11 12  1  0
 12 13  1  0
 13 14  1  0
 14 15  2  0
 14 16  1  0
 16 17  1  0
 17 18  1  0
 18 19  2  0
 19 20  1  0
 20 21  1  0
 20 22  2  0
 22 23  1  0
 23 24  1  0
 23 25  1  0
 23 26  1  0
 22 27  1  0
 12 28  2  0
 28 29  1  0
  7 30  2  0
 30 31  1  0
 31 32  2  0
 32  5  1  0
 29  9  2  0
 27 17  2  0
  1 33  1  0
  1 34  1  0
  1 35  1  0
  2 36  1  0
  6 37  1  0
 10 38  1  0
 11 39  1  0
 13 40  1  0
 16 41  1  0
 18 42  1  0
 19 43  1  0
 27 44  1  0
 28 45  1  0
 29 46  1  0
 30 47  1  0
 31 48  1  0
M  END
>  <meeko>  (10) 
{"is_sidechain": false}

>  <vina_affinity_kcal_mol>  (10) 
-7.951

>  <pose_rank>  (10) 
10

$$$$
