
     RDKit          3D

 55 59  0  0  0  0  0  0  0  0999 V2000
   -6.1615   -0.9583    1.7588 C   0  0  0  0  0  0  0  0  0  0  0  0
   -5.2456   -1.4779    0.6377 C   0  0  0  0  0  0  0  0  0  0  0  0
   -4.2793   -0.2885    0.9114 C   0  0  0  0  0  0  0  0  0  0  0  0
   -4.9626   -0.1754    2.3165 C   0  0  0  0  0  0  0  0  0  0  0  0
   -4.3712    0.9741    0.0421 C   0  0  0  0  0  0  0  0  0  0  0  0
   -5.7161    1.4341   -0.0619 O   0  0  0  0  0  0  0  0  0  0  0  0
   -2.9047   -0.7319    1.1025 N   0  0  0  0  0  0  0  0  0  0  0  0
   -1.8896   -0.7333    0.1319 C   0  0  0  0  0  0  0  0  0  0  0  0
   -0.8067   -0.0106    0.4901 N   0  0  0  0  0  0  0  0  0  0  0  0
    0.2356    0.1037   -0.3598 C   0  0  0  0  0  0  0  0  0  0  0  0
    0.2371   -0.4649   -1.5755 N   0  0  0  0  0  0  0  0  0  0  0  0
   -0.8426   -1.1921   -1.8991 C   0  0  0  0  0  0  0  0  0  0  0  0
   -1.9354   -1.3678   -1.0803 C   0  0  0  0  0  0  0  0  0  0  0  0
   -3.1871   -2.3922   -1.8129 S   0  0  0  0  0  4  0  0  0  0  0  0
   -2.8599   -3.7883   -1.3696 O   0  0  0  0  0  0  0  0  0  0  0  0
   -2.3964   -2.1679   -3.4567 C   0  0  0  0  0  0  0  0  0  0  0  0
   -0.9114   -1.9436   -3.1993 C   0  0  0  0  0  0  0  0  0  0  0  0
    1.3220    0.8691    0.0200 N   0  0  0  0  0  0  0  0  0  0  0  0
    1.5166    1.1435    1.4397 C   0  0  0  0  0  0  0  0  0  0  0  0
    2.9786    0.9494    1.8302 C   0  0  0  0  0  0  0  0  0  0  0  0
    3.9147    1.8305    0.9903 C   0  0  0  0  0  0  0  0  0  0  0  0
    3.4057    2.0409   -0.4447 C   0  0  0  0  0  0  0  0  0  0  0  0
    2.4678    0.9183   -0.8819 C   0  0  0  0  0  0  0  0  0  0  0  0
    5.3129    1.2531    1.0159 C   0  0  0  0  0  0  0  0  0  0  0  0
    6.2067    1.8294    1.8451 N   0  0  0  0  0  0  0  0  0  0  0  0
    7.4433    1.2822    1.8753 C   0  0  0  0  0  0  0  0  0  0  0  0
    7.8132    0.1930    1.1225 C   0  0  0  0  0  0  0  0  0  0  0  0
    6.8296   -0.3249    0.3141 C   0  0  0  0  0  0  0  0  0  0  0  0
    5.5772    0.1803    0.2411 N   0  0  0  0  0  0  0  0  0  0  0  0
    9.3863   -0.4713    1.1880 Cl  0  0  0  0  0  0  0  0  0  0  0  0
   -6.9833   -0.3259    1.4065 H   0  0  0  0  0  0  0  0  0  0  0  0
   -6.5723   -1.7241    2.4224 H   0  0  0  0  0  0  0  0  0  0  0  0
   -4.8341   -2.4705    0.8575 H   0  0  0  0  0  0  0  0  0  0  0  0
   -5.7162   -1.5017   -0.3493 H   0  0  0  0  0  0  0  0  0  0  0  0
   -5.1906    0.8366    2.6645 H   0  0  0  0  0  0  0  0  0  0  0  0
   -4.4503   -0.7074    3.1283 H   0  0  0  0  0  0  0  0  0  0  0  0
   -4.0167    0.7811   -0.9749 H   0  0  0  0  0  0  0  0  0  0  0  0
   -3.7711    1.7823    0.4749 H   0  0  0  0  0  0  0  0  0  0  0  0
   -5.6930    2.2722   -0.5550 H   0  0  0  0  0  0  0  0  0  0  0  0
   -2.4756   -0.2095    1.8696 H   0  0  0  0  0  0  0  0  0  0  0  0
   -2.5896   -3.0380   -4.0893 H   0  0  0  0  0  0  0  0  0  0  0  0
   -2.8570   -1.2838   -3.9111 H   0  0  0  0  0  0  0  0  0  0  0  0
   -0.3879   -2.8995   -3.0829 H   0  0  0  0  0  0  0  0  0  0  0  0
   -0.4468   -1.3849   -4.0173 H   0  0  0  0  0  0  0  0  0  0  0  0
    1.2075    2.1750    1.6473 H   0  0  0  0  0  0  0  0  0  0  0  0
    0.9165    0.4917    2.0859 H   0  0  0  0  0  0  0  0  0  0  0  0
    3.1153    1.1746    2.8953 H   0  0  0  0  0  0  0  0  0  0  0  0
    3.2321   -0.1130    1.7100 H   0  0  0  0  0  0  0  0  0  0  0  0
    3.9649    2.8234    1.4584 H   0  0  0  0  0  0  0  0  0  0  0  0
    4.2302    2.1494   -1.1595 H   0  0  0  0  0  0  0  0  0  0  0  0
    2.8462    2.9862   -0.4779 H   0  0  0  0  0  0  0  0  0  0  0  0
    2.1467    1.1373   -1.9080 H   0  0  0  0  0  0  0  0  0  0  0  0
    2.9914   -0.0453   -0.8930 H   0  0  0  0  0  0  0  0  0  0  0  0
    8.1430    1.7679    2.5490 H   0  0  0  0  0  0  0  0  0  0  0  0
    7.0140   -1.1869   -0.3202 H   0  0  0  0  0  0  0  0  0  0  0  0
  1  2  1  0
  2  3  1  0
  3  4  1  0
  3  5  1  0
  5  6  1  0
  3  7  1  0
  7  8  1  0
  8  9  1  0
  9 10  2  0
 10 11  1  0
 11 12  2  0
 12 13  1  0
 13 14  1  0
 14 15  2  0
 14 16  1  6
 16 17  1  0
 10 18  1  0
 18 19  1  0
 19 20  1  0
 20 21  1  0
 21 22  1  0
 22 23  1  0
 21 24  1  0
 24 25  2  0
 25 26  1  0
 26 27  2  0
 27 28  1  0
 28 29  2  0
 27 30  1  0
  4  1  1  0
 13  8  2  0
 17 12  1  0
 23 18  1  0
 29 24  1  0
  1 31  1  0
  1 32  1  0
  2 33  1  0
  2 34  1  0
  4 35  1  0
  4 36  1  0
  5 37  1  0
  5 38  1  0
  6 39  1  0
  7 40  1  0
 16 41  1  0
 16 42  1  0
 17 43  1  0
 17 44  1  0
 19 45  1  0
 19 46  1  0
 20 47  1  0
 20 48  1  0
 21 49  1  0
 22 50  1  0
 22 51  1  0
 23 52  1  0
 23 53  1  0
 26 54  1  0
 28 55  1  0
M  END
$$$$
