
     RDKit          3D

 55 59  0  0  0  0  0  0  0  0999 V2000
  -11.5180    5.6800  -18.0680 O   0  0  0  0  0  0  0  0  0  0  0  0
  -10.7660    5.9710  -16.8020 S   0  0  0  0  0  4  0  0  0  0  0  0
   -9.4880    7.2210  -17.2300 C   0  0  0  0  0  0  0  0  0  0  0  0
   -8.3710    6.4740  -17.9490 C   0  0  0  0  0  0  0  0  0  0  0  0
   -8.3250    5.1160  -17.3080 C   0  0  0  0  0  0  0  0  0  0  0  0
   -7.2240    4.3530  -17.3780 N   0  0  0  0  0  0  0  0  0  0  0  0
   -7.3070    3.1250  -16.8440 C   0  0  0  0  0  0  0  0  0  0  0  0
   -6.1980    2.3030  -16.8840 N   0  0  0  0  0  0  0  0  0  0  0  0
   -5.2700    2.3310  -15.7580 C   0  0  0  0  0  0  0  0  0  0  0  0
   -4.8740    0.9140  -15.3520 C   0  0  0  0  0  0  0  0  0  0  0  0
   -4.2580    0.1360  -16.5230 C   0  0  0  0  0  0  0  0  0  0  0  0
   -4.3700   -1.3490  -16.2590 C   0  0  0  0  0  0  0  0  0  0  0  0
   -3.3390   -2.1280  -16.6440 N   0  0  0  0  0  0  0  0  0  0  0  0
   -3.4450   -3.4480  -16.3750 C   0  0  0  0  0  0  0  0  0  0  0  0
   -4.5260   -4.0120  -15.7400 C   0  0  0  0  0  0  0  0  0  0  0  0
   -4.6240   -5.6870  -15.4160 Cl  0  0  0  0  0  0  0  0  0  0  0  0
   -5.5220   -3.1350  -15.3830 C   0  0  0  0  0  0  0  0  0  0  0  0
   -5.4720   -1.8060  -15.6270 N   0  0  0  0  0  0  0  0  0  0  0  0
   -4.8620    0.5270  -17.8810 C   0  0  0  0  0  0  0  0  0  0  0  0
   -6.2630    1.1140  -17.7280 C   0  0  0  0  0  0  0  0  0  0  0  0
   -8.4250    2.6790  -16.2320 N   0  0  0  0  0  0  0  0  0  0  0  0
   -9.5140    3.4730  -16.1580 C   0  0  0  0  0  0  0  0  0  0  0  0
  -10.5840    2.8870  -15.4640 N   0  0  0  0  0  0  0  0  0  0  0  0
  -10.8110    2.9400  -14.0260 C   0  0  0  0  0  0  0  0  0  0  0  0
   -9.5030    3.0810  -13.2330 C   0  0  0  0  0  0  0  0  0  0  0  0
   -8.8310    1.8300  -13.1150 O   0  0  0  0  0  0  0  0  0  0  0  0
  -12.0310    3.8340  -13.6570 C   0  0  0  0  0  0  0  0  0  0  0  0
  -12.5940    2.6750  -12.8160 C   0  0  0  0  0  0  0  0  0  0  0  0
  -11.7010    1.7160  -13.6190 C   0  0  0  0  0  0  0  0  0  0  0  0
   -9.5040    4.7240  -16.7160 C   0  0  0  0  0  0  0  0  0  0  0  0
   -9.9157    7.9904  -17.8896 H   0  0  0  0  0  0  0  0  0  0  0  0
   -9.1107    7.7268  -16.3290 H   0  0  0  0  0  0  0  0  0  0  0  0
   -8.5952    6.3860  -19.0223 H   0  0  0  0  0  0  0  0  0  0  0  0
   -7.4078    6.9989  -17.8668 H   0  0  0  0  0  0  0  0  0  0  0  0
   -4.3676    2.8896  -16.0472 H   0  0  0  0  0  0  0  0  0  0  0  0
   -5.7630    2.8194  -14.9046 H   0  0  0  0  0  0  0  0  0  0  0  0
   -4.1387    0.9700  -14.5358 H   0  0  0  0  0  0  0  0  0  0  0  0
   -5.7827    0.3842  -15.0302 H   0  0  0  0  0  0  0  0  0  0  0  0
   -3.1938    0.4063  -16.5890 H   0  0  0  0  0  0  0  0  0  0  0  0
   -2.6202   -4.1082  -16.6813 H   0  0  0  0  0  0  0  0  0  0  0  0
   -6.4087   -3.5363  -14.8705 H   0  0  0  0  0  0  0  0  0  0  0  0
   -4.2121    1.2754  -18.3580 H   0  0  0  0  0  0  0  0  0  0  0  0
   -4.9361   -0.3810  -18.4975 H   0  0  0  0  0  0  0  0  0  0  0  0
   -6.6571    1.3871  -18.7180 H   0  0  0  0  0  0  0  0  0  0  0  0
   -6.9263    0.3688  -17.2646 H   0  0  0  0  0  0  0  0  0  0  0  0
  -10.5410    1.9130  -15.7730 H   0  0  0  0  0  0  0  0  0  0  0  0
   -8.8448    3.7937  -13.7515 H   0  0  0  0  0  0  0  0  0  0  0  0
   -9.7470    3.4404  -12.2224 H   0  0  0  0  0  0  0  0  0  0  0  0
   -9.4910    1.1350  -13.2830 H   0  0  0  0  0  0  0  0  0  0  0  0
  -11.7748    4.7322  -13.0759 H   0  0  0  0  0  0  0  0  0  0  0  0
  -12.6389    4.3114  -14.4397 H   0  0  0  0  0  0  0  0  0  0  0  0
  -12.3533    2.7313  -11.7441 H   0  0  0  0  0  0  0  0  0  0  0  0
  -13.6776    2.5073  -12.7280 H   0  0  0  0  0  0  0  0  0  0  0  0
  -11.1830    0.9608  -13.0097 H   0  0  0  0  0  0  0  0  0  0  0  0
  -12.1277    1.0463  -14.3802 H   0  0  0  0  0  0  0  0  0  0  0  0
  1  2  2  0
  2  3  1  6
  3  4  1  0
  4  5  1  0
  5  6  2  0
  6  7  1  0
  7  8  1  0
  8  9  1  0
  9 10  1  0
 10 11  1  0
 11 12  1  0
 12 13  2  0
 13 14  1  0
 14 15  2  0
 15 16  1  0
 15 17  1  0
 17 18  2  0
 11 19  1  0
 19 20  1  0
  7 21  2  0
 21 22  1  0
 22 23  1  0
 23 24  1  0
 24 25  1  0
 25 26  1  0
 24 27  1  0
 27 28  1  0
 28 29  1  0
 22 30  2  0
 30  2  1  0
 30  5  1  0
 20  8  1  0
 29 24  1  0
 18 12  1  0
  3 31  1  0
  3 32  1  0
  4 33  1  0
  4 34  1  0
  9 35  1  0
  9 36  1  0
 10 37  1  0
 10 38  1  0
 11 39  1  0
 14 40  1  0
 17 41  1  0
 19 42  1  0
 19 43  1  0
 20 44  1  0
 20 45  1  0
 23 46  1  0
 25 47  1  0
 25 48  1  0
 26 49  1  0
 27 50  1  0
 27 51  1  0
 28 52  1  0
 28 53  1  0
 29 54  1  0
 29 55  1  0
M  END
>  <meeko>  (1) 
{"is_sidechain": false}

>  <vina_affinity_kcal_mol>  (1) 
-7.747

>  <pose_rank>  (1) 
1

$$$$

     RDKit          3D

 55 59  0  0  0  0  0  0  0  0999 V2000
   -7.0130    3.2620  -16.4040 O   0  0  0  0  0  0  0  0  0  0  0  0
   -8.2600    2.6620  -16.9860 S   0  0  0  0  0  4  0  0  0  0  0  0
   -9.5760    3.9340  -16.8230 C   0  0  0  0  0  0  0  0  0  0  0  0
  -10.0180    3.9190  -15.3650 C   0  0  0  0  0  0  0  0  0  0  0  0
   -9.8950    2.4860  -14.9280 C   0  0  0  0  0  0  0  0  0  0  0  0
  -10.5810    2.0220  -13.8720 N   0  0  0  0  0  0  0  0  0  0  0  0
  -10.3430    0.7520  -13.5120 C   0  0  0  0  0  0  0  0  0  0  0  0
  -11.0280    0.2230  -12.4350 N   0  0  0  0  0  0  0  0  0  0  0  0
  -10.6750   -1.1160  -11.9750 C   0  0  0  0  0  0  0  0  0  0  0  0
  -10.5720   -1.1520  -10.4530 C   0  0  0  0  0  0  0  0  0  0  0  0
  -11.8740   -0.6910   -9.7820 C   0  0  0  0  0  0  0  0  0  0  0  0
  -11.5830   -0.2410   -8.3670 C   0  0  0  0  0  0  0  0  0  0  0  0
  -10.3150   -0.3640   -7.9260 N   0  0  0  0  0  0  0  0  0  0  0  0
  -10.0680    0.0690   -6.6690 C   0  0  0  0  0  0  0  0  0  0  0  0
  -11.0260    0.6180   -5.8500 C   0  0  0  0  0  0  0  0  0  0  0  0
  -10.6760    1.1540   -4.2660 Cl  0  0  0  0  0  0  0  0  0  0  0  0
  -12.2850    0.7040   -6.3930 C   0  0  0  0  0  0  0  0  0  0  0  0
  -12.5920    0.2870   -7.6430 N   0  0  0  0  0  0  0  0  0  0  0  0
  -12.6100    0.3900  -10.5900 C   0  0  0  0  0  0  0  0  0  0  0  0
  -11.6580    1.1560  -11.5060 C   0  0  0  0  0  0  0  0  0  0  0  0
   -9.4870   -0.0430  -14.1900 N   0  0  0  0  0  0  0  0  0  0  0  0
   -8.8240    0.4430  -15.2610 C   0  0  0  0  0  0  0  0  0  0  0  0
   -7.9980   -0.5080  -15.8830 N   0  0  0  0  0  0  0  0  0  0  0  0
   -6.5550   -0.6250  -15.7340 C   0  0  0  0  0  0  0  0  0  0  0  0
   -6.0240    0.1720  -14.5330 C   0  0  0  0  0  0  0  0  0  0  0  0
   -5.3240    1.3400  -14.9550 O   0  0  0  0  0  0  0  0  0  0  0  0
   -6.0570   -2.0810  -15.9660 C   0  0  0  0  0  0  0  0  0  0  0  0
   -5.0270   -1.5430  -16.9730 C   0  0  0  0  0  0  0  0  0  0  0  0
   -5.8850   -0.2750  -17.1060 C   0  0  0  0  0  0  0  0  0  0  0  0
   -8.9950    1.7420  -15.6570 C   0  0  0  0  0  0  0  0  0  0  0  0
   -9.1807    4.9253  -17.0896 H   0  0  0  0  0  0  0  0  0  0  0  0
  -10.4198    3.7201  -17.4955 H   0  0  0  0  0  0  0  0  0  0  0  0
   -9.3659    4.5642  -14.7580 H   0  0  0  0  0  0  0  0  0  0  0  0
  -11.0434    4.2983  -15.2434 H   0  0  0  0  0  0  0  0  0  0  0  0
  -11.4490   -1.8261  -12.3017 H   0  0  0  0  0  0  0  0  0  0  0  0
   -9.6999   -1.3920  -12.4028 H   0  0  0  0  0  0  0  0  0  0  0  0
  -10.3531   -2.1821  -10.1353 H   0  0  0  0  0  0  0  0  0  0  0  0
   -9.7687   -0.4650  -10.1484 H   0  0  0  0  0  0  0  0  0  0  0  0
  -12.5617   -1.5489   -9.7484 H   0  0  0  0  0  0  0  0  0  0  0  0
   -9.0432   -0.0232   -6.2800 H   0  0  0  0  0  0  0  0  0  0  0  0
  -13.0879    1.1358   -5.7775 H   0  0  0  0  0  0  0  0  0  0  0  0
  -13.3862   -0.0903  -11.2039 H   0  0  0  0  0  0  0  0  0  0  0  0
  -13.0542    1.1049   -9.8818 H   0  0  0  0  0  0  0  0  0  0  0  0
  -12.2214    1.9132  -12.0711 H   0  0  0  0  0  0  0  0  0  0  0  0
  -10.8849    1.6529  -10.9016 H   0  0  0  0  0  0  0  0  0  0  0  0
   -8.2370   -0.3950  -16.8710 H   0  0  0  0  0  0  0  0  0  0  0  0
   -6.8714    0.4716  -13.8989 H   0  0  0  0  0  0  0  0  0  0  0  0
   -5.3260   -0.4677  -13.9731 H   0  0  0  0  0  0  0  0  0  0  0  0
   -5.5210    1.4640  -15.8990 H   0  0  0  0  0  0  0  0  0  0  0  0
   -5.6157   -2.5554  -15.0771 H   0  0  0  0  0  0  0  0  0  0  0  0
   -6.7589   -2.8794  -16.2486 H   0  0  0  0  0  0  0  0  0  0  0  0
   -4.0249   -1.3728  -16.5525 H   0  0  0  0  0  0  0  0  0  0  0  0
   -4.7323   -2.1284  -17.8564 H   0  0  0  0  0  0  0  0  0  0  0  0
   -5.3112    0.6635  -17.1045 H   0  0  0  0  0  0  0  0  0  0  0  0
   -6.4930   -0.0929  -18.0044 H   0  0  0  0  0  0  0  0  0  0  0  0
  1  2  2  0
  2  3  1  1
  3  4  1  0
  4  5  1  0
  5  6  2  0
  6  7  1  0
  7  8  1  0
  8  9  1  0
  9 10  1  0
 10 11  1  0
 11 12  1  0
 12 13  2  0
 13 14  1  0
 14 15  2  0
 15 16  1  0
 15 17  1  0
 17 18  2  0
 11 19  1  0
 19 20  1  0
  7 21  2  0
 21 22  1  0
 22 23  1  0
 23 24  1  0
 24 25  1  0
 25 26  1  0
 24 27  1  0
 27 28  1  0
 28 29  1  0
 22 30  2  0
 30  2  1  0
 30  5  1  0
 20  8  1  0
 29 24  1  0
 18 12  1  0
  3 31  1  0
  3 32  1  0
  4 33  1  0
  4 34  1  0
  9 35  1  0
  9 36  1  0
 10 37  1  0
 10 38  1  0
 11 39  1  0
 14 40  1  0
 17 41  1  0
 19 42  1  0
 19 43  1  0
 20 44  1  0
 20 45  1  0
 23 46  1  0
 25 47  1  0
 25 48  1  0
 26 49  1  0
 27 50  1  0
 27 51  1  0
 28 52  1  0
 28 53  1  0
 29 54  1  0
 29 55  1  0
M  END
>  <meeko>  (2) 
{"is_sidechain": false}

>  <vina_affinity_kcal_mol>  (2) 
-7.572

>  <pose_rank>  (2) 
2

$$$$

     RDKit          3D

 55 59  0  0  0  0  0  0  0  0999 V2000
  -11.4010    4.6620  -13.8970 O   0  0  0  0  0  0  0  0  0  0  0  0
  -11.7090    3.3810  -14.6160 S   0  0  0  0  0  4  0  0  0  0  0  0
  -11.7860    2.0680  -13.3330 C   0  0  0  0  0  0  0  0  0  0  0  0
  -10.3460    1.7360  -12.9620 C   0  0  0  0  0  0  0  0  0  0  0  0
   -9.5590    1.9080  -14.2320 C   0  0  0  0  0  0  0  0  0  0  0  0
   -8.3700    1.3090  -14.3970 N   0  0  0  0  0  0  0  0  0  0  0  0
   -7.7090    1.5860  -15.5310 C   0  0  0  0  0  0  0  0  0  0  0  0
   -6.4830    0.9900  -15.7520 N   0  0  0  0  0  0  0  0  0  0  0  0
   -6.4550   -0.3470  -16.3350 C   0  0  0  0  0  0  0  0  0  0  0  0
   -5.4010   -0.4340  -17.4340 C   0  0  0  0  0  0  0  0  0  0  0  0
   -4.0050   -0.0550  -16.9170 C   0  0  0  0  0  0  0  0  0  0  0  0
   -3.1290    0.3570  -18.0790 C   0  0  0  0  0  0  0  0  0  0  0  0
   -3.4750   -0.0850  -19.3050 N   0  0  0  0  0  0  0  0  0  0  0  0
   -2.6960    0.3160  -20.3350 C   0  0  0  0  0  0  0  0  0  0  0  0
   -1.6020    1.1350  -20.1880 C   0  0  0  0  0  0  0  0  0  0  0  0
   -0.6410    1.6210  -21.5140 Cl  0  0  0  0  0  0  0  0  0  0  0  0
   -1.3350    1.5360  -18.9010 C   0  0  0  0  0  0  0  0  0  0  0  0
   -2.0770    1.1660  -17.8320 N   0  0  0  0  0  0  0  0  0  0  0  0
   -4.0480    1.0200  -15.8190 C   0  0  0  0  0  0  0  0  0  0  0  0
   -5.3210    1.8600  -15.9010 C   0  0  0  0  0  0  0  0  0  0  0  0
   -8.2190    2.3970  -16.4830 N   0  0  0  0  0  0  0  0  0  0  0  0
   -9.4260    2.9730  -16.3010 C   0  0  0  0  0  0  0  0  0  0  0  0
   -9.8380    3.7590  -17.3890 N   0  0  0  0  0  0  0  0  0  0  0  0
   -9.2830    5.0470  -17.7810 C   0  0  0  0  0  0  0  0  0  0  0  0
   -7.9460    4.9060  -18.5240 C   0  0  0  0  0  0  0  0  0  0  0  0
   -7.7840    5.9350  -19.4960 O   0  0  0  0  0  0  0  0  0  0  0  0
  -10.3710    6.0090  -18.3390 C   0  0  0  0  0  0  0  0  0  0  0  0
   -9.8860    7.0880  -17.3560 C   0  0  0  0  0  0  0  0  0  0  0  0
   -9.2420    5.9730  -16.5180 C   0  0  0  0  0  0  0  0  0  0  0  0
  -10.1340    2.7580  -15.1490 C   0  0  0  0  0  0  0  0  0  0  0  0
  -12.3311    2.4322  -12.4497 H   0  0  0  0  0  0  0  0  0  0  0  0
  -12.3141    1.1786  -13.7072 H   0  0  0  0  0  0  0  0  0  0  0  0
   -9.9798    2.4239  -12.1857 H   0  0  0  0  0  0  0  0  0  0  0  0
  -10.2515    0.7181  -12.5558 H   0  0  0  0  0  0  0  0  0  0  0  0
   -6.2181   -1.0789  -15.5487 H   0  0  0  0  0  0  0  0  0  0  0  0
   -7.4409   -0.5627  -16.7727 H   0  0  0  0  0  0  0  0  0  0  0  0
   -5.3709   -1.4645  -17.8177 H   0  0  0  0  0  0  0  0  0  0  0  0
   -5.6758    0.2758  -18.2282 H   0  0  0  0  0  0  0  0  0  0  0  0
   -3.5669   -0.9433  -16.4384 H   0  0  0  0  0  0  0  0  0  0  0  0
   -2.9520   -0.0325  -21.3464 H   0  0  0  0  0  0  0  0  0  0  0  0
   -0.4702    2.1941  -18.7306 H   0  0  0  0  0  0  0  0  0  0  0  0
   -4.0084    0.5276  -14.8362 H   0  0  0  0  0  0  0  0  0  0  0  0
   -3.1860    1.6887  -15.9596 H   0  0  0  0  0  0  0  0  0  0  0  0
   -5.3184    2.6106  -15.0969 H   0  0  0  0  0  0  0  0  0  0  0  0
   -5.3644    2.3694  -16.8750 H   0  0  0  0  0  0  0  0  0  0  0  0
  -10.8440    3.8490  -17.2280 H   0  0  0  0  0  0  0  0  0  0  0  0
   -7.1233    4.9674  -17.7964 H   0  0  0  0  0  0  0  0  0  0  0  0
   -7.9362    3.9350  -19.0408 H   0  0  0  0  0  0  0  0  0  0  0  0
   -7.4480    6.7190  -19.0280 H   0  0  0  0  0  0  0  0  0  0  0  0
  -10.2421    6.2718  -19.3993 H   0  0  0  0  0  0  0  0  0  0  0  0
  -11.4286    5.7080  -18.3706 H   0  0  0  0  0  0  0  0  0  0  0  0
   -9.1714    7.8062  -17.7844 H   0  0  0  0  0  0  0  0  0  0  0  0
  -10.5863    7.8077  -16.9070 H   0  0  0  0  0  0  0  0  0  0  0  0
   -8.2289    6.2039  -16.1571 H   0  0  0  0  0  0  0  0  0  0  0  0
   -9.6854    5.6518  -15.5639 H   0  0  0  0  0  0  0  0  0  0  0  0
  1  2  2  0
  2  3  1  1
  3  4  1  0
  4  5  1  0
  5  6  2  0
  6  7  1  0
  7  8  1  0
  8  9  1  0
  9 10  1  0
 10 11  1  0
 11 12  1  0
 12 13  2  0
 13 14  1  0
 14 15  2  0
 15 16  1  0
 15 17  1  0
 17 18  2  0
 11 19  1  0
 19 20  1  0
  7 21  2  0
 21 22  1  0
 22 23  1  0
 23 24  1  0
 24 25  1  0
 25 26  1  0
 24 27  1  0
 27 28  1  0
 28 29  1  0
 22 30  2  0
 30  2  1  0
 30  5  1  0
 20  8  1  0
 29 24  1  0
 18 12  1  0
  3 31  1  0
  3 32  1  0
  4 33  1  0
  4 34  1  0
  9 35  1  0
  9 36  1  0
 10 37  1  0
 10 38  1  0
 11 39  1  0
 14 40  1  0
 17 41  1  0
 19 42  1  0
 19 43  1  0
 20 44  1  0
 20 45  1  0
 23 46  1  0
 25 47  1  0
 25 48  1  0
 26 49  1  0
 27 50  1  0
 27 51  1  0
 28 52  1  0
 28 53  1  0
 29 54  1  0
 29 55  1  0
M  END
>  <meeko>  (3) 
{"is_sidechain": false}

>  <vina_affinity_kcal_mol>  (3) 
-7.55

>  <pose_rank>  (3) 
3

$$$$

     RDKit          3D

 55 59  0  0  0  0  0  0  0  0999 V2000
   -2.2940   -3.3580  -16.9440 O   0  0  0  0  0  0  0  0  0  0  0  0
   -1.7050   -1.9890  -16.7690 S   0  0  0  0  0  4  0  0  0  0  0  0
   -1.6890   -1.6550  -14.9620 C   0  0  0  0  0  0  0  0  0  0  0  0
   -3.1190   -1.3000  -14.5720 C   0  0  0  0  0  0  0  0  0  0  0  0
   -3.6860   -0.5740  -15.7600 C   0  0  0  0  0  0  0  0  0  0  0  0
   -4.7420    0.2430  -15.6340 N   0  0  0  0  0  0  0  0  0  0  0  0
   -5.2240    0.7820  -16.7640 C   0  0  0  0  0  0  0  0  0  0  0  0
   -6.3070    1.6360  -16.6880 N   0  0  0  0  0  0  0  0  0  0  0  0
   -7.3970    1.4640  -17.6430 C   0  0  0  0  0  0  0  0  0  0  0  0
   -8.7480    1.5470  -16.9390 C   0  0  0  0  0  0  0  0  0  0  0  0
   -8.9160    2.8720  -16.1810 C   0  0  0  0  0  0  0  0  0  0  0  0
   -9.9690    2.7120  -15.1080 C   0  0  0  0  0  0  0  0  0  0  0  0
  -10.7910    3.7570  -14.8830 N   0  0  0  0  0  0  0  0  0  0  0  0
  -11.7440    3.5850  -13.9400 C   0  0  0  0  0  0  0  0  0  0  0  0
  -11.9090    2.4230  -13.2260 C   0  0  0  0  0  0  0  0  0  0  0  0
  -13.1260    2.2430  -12.0410 Cl  0  0  0  0  0  0  0  0  0  0  0  0
  -11.0260    1.4140  -13.5310 C   0  0  0  0  0  0  0  0  0  0  0  0
  -10.0520    1.5280  -14.4630 N   0  0  0  0  0  0  0  0  0  0  0  0
   -7.5910    3.4040  -15.6120 C   0  0  0  0  0  0  0  0  0  0  0  0
   -6.5730    2.2840  -15.4080 C   0  0  0  0  0  0  0  0  0  0  0  0
   -4.6620    0.5510  -17.9700 N   0  0  0  0  0  0  0  0  0  0  0  0
   -3.5870   -0.2600  -18.0680 C   0  0  0  0  0  0  0  0  0  0  0  0
   -3.0940   -0.3760  -19.3770 N   0  0  0  0  0  0  0  0  0  0  0  0
   -1.8150    0.1240  -19.8630 C   0  0  0  0  0  0  0  0  0  0  0  0
   -0.7510   -0.9810  -19.9520 C   0  0  0  0  0  0  0  0  0  0  0  0
   -0.9800   -1.8310  -21.0730 O   0  0  0  0  0  0  0  0  0  0  0  0
   -1.9860    1.1190  -21.0480 C   0  0  0  0  0  0  0  0  0  0  0  0
   -1.0970    2.1250  -20.2980 C   0  0  0  0  0  0  0  0  0  0  0  0
   -1.4070    1.3650  -18.9990 C   0  0  0  0  0  0  0  0  0  0  0  0
   -3.0710   -0.8690  -16.9560 C   0  0  0  0  0  0  0  0  0  0  0  0
   -1.3569   -2.5489  -14.4137 H   0  0  0  0  0  0  0  0  0  0  0  0
   -0.9960   -0.8369  -14.7160 H   0  0  0  0  0  0  0  0  0  0  0  0
   -3.6992   -2.2112  -14.3645 H   0  0  0  0  0  0  0  0  0  0  0  0
   -3.1547   -0.6852  -13.6605 H   0  0  0  0  0  0  0  0  0  0  0  0
   -7.3377    2.2549  -18.4052 H   0  0  0  0  0  0  0  0  0  0  0  0
   -7.3030    0.4739  -18.1129 H   0  0  0  0  0  0  0  0  0  0  0  0
   -9.5468    1.4630  -17.6906 H   0  0  0  0  0  0  0  0  0  0  0  0
   -8.8040    0.7261  -16.2089 H   0  0  0  0  0  0  0  0  0  0  0  0
   -9.2527    3.6343  -16.8990 H   0  0  0  0  0  0  0  0  0  0  0  0
  -12.4260    4.4228  -13.7326 H   0  0  0  0  0  0  0  0  0  0  0  0
  -11.1165    0.4620  -12.9874 H   0  0  0  0  0  0  0  0  0  0  0  0
   -7.1732    4.1421  -16.3124 H   0  0  0  0  0  0  0  0  0  0  0  0
   -7.7976    3.8617  -14.6333 H   0  0  0  0  0  0  0  0  0  0  0  0
   -5.6388    2.7048  -15.0079 H   0  0  0  0  0  0  0  0  0  0  0  0
   -6.9739    1.5462  -14.6974 H   0  0  0  0  0  0  0  0  0  0  0  0
   -3.8550    0.0190  -19.9350 H   0  0  0  0  0  0  0  0  0  0  0  0
    0.2410   -0.5162  -20.0514 H   0  0  0  0  0  0  0  0  0  0  0  0
   -0.8054   -1.5900  -19.0375 H   0  0  0  0  0  0  0  0  0  0  0  0
   -0.9630   -2.7460  -20.7440 H   0  0  0  0  0  0  0  0  0  0  0  0
   -1.5651    0.7651  -22.0007 H   0  0  0  0  0  0  0  0  0  0  0  0
   -2.9860    1.4054  -21.4056 H   0  0  0  0  0  0  0  0  0  0  0  0
   -0.0379    2.1063  -20.5948 H   0  0  0  0  0  0  0  0  0  0  0  0
   -1.2671    3.2087  -20.3797 H   0  0  0  0  0  0  0  0  0  0  0  0
   -0.5340    1.1995  -18.3505 H   0  0  0  0  0  0  0  0  0  0  0  0
   -2.0919    1.7828  -18.2464 H   0  0  0  0  0  0  0  0  0  0  0  0
  1  2  2  0
  2  3  1  1
  3  4  1  0
  4  5  1  0
  5  6  2  0
  6  7  1  0
  7  8  1  0
  8  9  1  0
  9 10  1  0
 10 11  1  0
 11 12  1  0
 12 13  2  0
 13 14  1  0
 14 15  2  0
 15 16  1  0
 15 17  1  0
 17 18  2  0
 11 19  1  0
 19 20  1  0
  7 21  2  0
 21 22  1  0
 22 23  1  0
 23 24  1  0
 24 25  1  0
 25 26  1  0
 24 27  1  0
 27 28  1  0
 28 29  1  0
 22 30  2  0
 30  2  1  0
 30  5  1  0
 20  8  1  0
 29 24  1  0
 18 12  1  0
  3 31  1  0
  3 32  1  0
  4 33  1  0
  4 34  1  0
  9 35  1  0
  9 36  1  0
 10 37  1  0
 10 38  1  0
 11 39  1  0
 14 40  1  0
 17 41  1  0
 19 42  1  0
 19 43  1  0
 20 44  1  0
 20 45  1  0
 23 46  1  0
 25 47  1  0
 25 48  1  0
 26 49  1  0
 27 50  1  0
 27 51  1  0
 28 52  1  0
 28 53  1  0
 29 54  1  0
 29 55  1  0
M  END
>  <meeko>  (4) 
{"is_sidechain": false}

>  <vina_affinity_kcal_mol>  (4) 
-7.466

>  <pose_rank>  (4) 
4

$$$$

     RDKit          3D

 55 59  0  0  0  0  0  0  0  0999 V2000
  -10.9970    5.6070  -18.1650 O   0  0  0  0  0  0  0  0  0  0  0  0
  -10.0300    5.7410  -17.0250 S   0  0  0  0  0  4  0  0  0  0  0  0
   -8.4730    6.4080  -17.7370 C   0  0  0  0  0  0  0  0  0  0  0  0
   -7.7810    5.2460  -18.4380 C   0  0  0  0  0  0  0  0  0  0  0  0
   -8.1150    4.0320  -17.6170 C   0  0  0  0  0  0  0  0  0  0  0  0
   -7.3560    2.9260  -17.6750 N   0  0  0  0  0  0  0  0  0  0  0  0
   -7.7800    1.8690  -16.9670 C   0  0  0  0  0  0  0  0  0  0  0  0
   -7.0320    0.7080  -16.9870 N   0  0  0  0  0  0  0  0  0  0  0  0
   -5.9570    0.5900  -17.9680 C   0  0  0  0  0  0  0  0  0  0  0  0
   -4.6970    0.0240  -17.3210 C   0  0  0  0  0  0  0  0  0  0  0  0
   -4.9580   -1.3370  -16.6590 C   0  0  0  0  0  0  0  0  0  0  0  0
   -3.8950   -1.6060  -15.6170 C   0  0  0  0  0  0  0  0  0  0  0  0
   -2.6780   -1.0620  -15.8170 N   0  0  0  0  0  0  0  0  0  0  0  0
   -1.7490   -1.2900  -14.8610 C   0  0  0  0  0  0  0  0  0  0  0  0
   -1.9890   -2.0260  -13.7260 C   0  0  0  0  0  0  0  0  0  0  0  0
   -0.7900   -2.2930  -12.5390 Cl  0  0  0  0  0  0  0  0  0  0  0  0
   -3.2610   -2.5340  -13.6120 C   0  0  0  0  0  0  0  0  0  0  0  0
   -4.2310   -2.3400  -14.5350 N   0  0  0  0  0  0  0  0  0  0  0  0
   -6.3760   -1.4550  -16.0790 C   0  0  0  0  0  0  0  0  0  0  0  0
   -6.9730   -0.0850  -15.7640 C   0  0  0  0  0  0  0  0  0  0  0  0
   -8.8920    1.9110  -16.2020 N   0  0  0  0  0  0  0  0  0  0  0  0
   -9.6270    3.0420  -16.1460 C   0  0  0  0  0  0  0  0  0  0  0  0
  -10.7310    2.9460  -15.2840 N   0  0  0  0  0  0  0  0  0  0  0  0
  -10.6860    2.6910  -13.8510 C   0  0  0  0  0  0  0  0  0  0  0  0
   -9.3080    2.9970  -13.2450 C   0  0  0  0  0  0  0  0  0  0  0  0
   -8.5420    1.8070  -13.0750 O   0  0  0  0  0  0  0  0  0  0  0  0
  -11.9690    3.1920  -13.1250 C   0  0  0  0  0  0  0  0  0  0  0  0
  -12.1150    1.8050  -12.4780 C   0  0  0  0  0  0  0  0  0  0  0  0
  -11.2160    1.2400  -13.5880 C   0  0  0  0  0  0  0  0  0  0  0  0
   -9.2680    4.1440  -16.8740 C   0  0  0  0  0  0  0  0  0  0  0  0
   -8.6977    7.2070  -18.4589 H   0  0  0  0  0  0  0  0  0  0  0  0
   -7.8310    6.8373  -16.9537 H   0  0  0  0  0  0  0  0  0  0  0  0
   -8.1610    5.1336  -19.4642 H   0  0  0  0  0  0  0  0  0  0  0  0
   -6.6950    5.4022  -18.5161 H   0  0  0  0  0  0  0  0  0  0  0  0
   -6.2794   -0.0806  -18.7782 H   0  0  0  0  0  0  0  0  0  0  0  0
   -5.7312    1.5897  -18.3674 H   0  0  0  0  0  0  0  0  0  0  0  0
   -3.9240   -0.0984  -18.0940 H   0  0  0  0  0  0  0  0  0  0  0  0
   -4.3682    0.7263  -16.5408 H   0  0  0  0  0  0  0  0  0  0  0  0
   -4.8965   -2.1113  -17.4379 H   0  0  0  0  0  0  0  0  0  0  0  0
   -0.7451   -0.8623  -14.9999 H   0  0  0  0  0  0  0  0  0  0  0  0
   -3.5038   -3.1314  -12.7209 H   0  0  0  0  0  0  0  0  0  0  0  0
   -7.0195   -1.9645  -16.8114 H   0  0  0  0  0  0  0  0  0  0  0  0
   -6.3166   -2.0271  -15.1413 H   0  0  0  0  0  0  0  0  0  0  0  0
   -7.9877   -0.2108  -15.3584 H   0  0  0  0  0  0  0  0  0  0  0  0
   -6.3447    0.4289  -15.0216 H   0  0  0  0  0  0  0  0  0  0  0  0
  -11.3100    2.2390  -15.7440 H   0  0  0  0  0  0  0  0  0  0  0  0
   -8.7653    3.6800  -13.9151 H   0  0  0  0  0  0  0  0  0  0  0  0
   -9.4572    3.4583  -12.2576 H   0  0  0  0  0  0  0  0  0  0  0  0
   -7.7560    1.8900  -13.6420 H   0  0  0  0  0  0  0  0  0  0  0  0
  -11.7943    4.0091  -12.4095 H   0  0  0  0  0  0  0  0  0  0  0  0
  -12.7986    3.6416  -13.6903 H   0  0  0  0  0  0  0  0  0  0  0  0
  -11.6915    1.7280  -11.4657 H   0  0  0  0  0  0  0  0  0  0  0  0
  -13.1053    1.3734  -12.2705 H   0  0  0  0  0  0  0  0  0  0  0  0
  -10.4497    0.5338  -13.2359 H   0  0  0  0  0  0  0  0  0  0  0  0
  -11.6352    0.6324  -14.4036 H   0  0  0  0  0  0  0  0  0  0  0  0
  1  2  2  0
  2  3  1  6
  3  4  1  0
  4  5  1  0
  5  6  2  0
  6  7  1  0
  7  8  1  0
  8  9  1  0
  9 10  1  0
 10 11  1  0
 11 12  1  0
 12 13  2  0
 13 14  1  0
 14 15  2  0
 15 16  1  0
 15 17  1  0
 17 18  2  0
 11 19  1  0
 19 20  1  0
  7 21  2  0
 21 22  1  0
 22 23  1  0
 23 24  1  0
 24 25  1  0
 25 26  1  0
 24 27  1  0
 27 28  1  0
 28 29  1  0
 22 30  2  0
 30  2  1  0
 30  5  1  0
 20  8  1  0
 29 24  1  0
 18 12  1  0
  3 31  1  0
  3 32  1  0
  4 33  1  0
  4 34  1  0
  9 35  1  0
  9 36  1  0
 10 37  1  0
 10 38  1  0
 11 39  1  0
 14 40  1  0
 17 41  1  0
 19 42  1  0
 19 43  1  0
 20 44  1  0
 20 45  1  0
 23 46  1  0
 25 47  1  0
 25 48  1  0
 26 49  1  0
 27 50  1  0
 27 51  1  0
 28 52  1  0
 28 53  1  0
 29 54  1  0
 29 55  1  0
M  END
>  <meeko>  (5) 
{"is_sidechain": false}

>  <vina_affinity_kcal_mol>  (5) 
-7.446

>  <pose_rank>  (5) 
5

$$$$

     RDKit          3D

 55 59  0  0  0  0  0  0  0  0999 V2000
   -1.6780   -3.3570  -17.2620 O   0  0  0  0  0  0  0  0  0  0  0  0
   -1.2310   -1.9390  -17.0630 S   0  0  0  0  0  4  0  0  0  0  0  0
   -1.1020   -1.6820  -15.2470 C   0  0  0  0  0  0  0  0  0  0  0  0
   -2.5250   -1.5090  -14.7300 C   0  0  0  0  0  0  0  0  0  0  0  0
   -3.2640   -0.8030  -15.8320 C   0  0  0  0  0  0  0  0  0  0  0  0
   -4.3900   -0.1170  -15.5820 N   0  0  0  0  0  0  0  0  0  0  0  0
   -5.0200    0.4110  -16.6420 C   0  0  0  0  0  0  0  0  0  0  0  0
   -6.1810    1.1320  -16.4390 N   0  0  0  0  0  0  0  0  0  0  0  0
   -6.1840    2.1700  -15.4130 C   0  0  0  0  0  0  0  0  0  0  0  0
   -6.8550    3.4380  -15.9320 C   0  0  0  0  0  0  0  0  0  0  0  0
   -8.2880    3.1690  -16.4130 C   0  0  0  0  0  0  0  0  0  0  0  0
   -8.7140    4.2600  -17.3700 C   0  0  0  0  0  0  0  0  0  0  0  0
   -7.7930    4.7150  -18.2430 N   0  0  0  0  0  0  0  0  0  0  0  0
   -8.2010    5.6700  -19.1090 C   0  0  0  0  0  0  0  0  0  0  0  0
   -9.4780    6.1760  -19.1390 C   0  0  0  0  0  0  0  0  0  0  0  0
   -9.9560    7.3840  -20.2490 Cl  0  0  0  0  0  0  0  0  0  0  0  0
  -10.3440    5.6440  -18.2140 C   0  0  0  0  0  0  0  0  0  0  0  0
   -9.9930    4.6890  -17.3230 N   0  0  0  0  0  0  0  0  0  0  0  0
   -8.4580    1.7690  -17.0230 C   0  0  0  0  0  0  0  0  0  0  0  0
   -7.1330    1.2140  -17.5410 C   0  0  0  0  0  0  0  0  0  0  0  0
   -4.5380    0.2970  -17.8990 N   0  0  0  0  0  0  0  0  0  0  0  0
   -3.3930   -0.3820  -18.1210 C   0  0  0  0  0  0  0  0  0  0  0  0
   -3.0000   -0.3850  -19.4690 N   0  0  0  0  0  0  0  0  0  0  0  0
   -1.7650    0.1670  -20.0070 C   0  0  0  0  0  0  0  0  0  0  0  0
   -0.6560   -0.8890  -20.1280 C   0  0  0  0  0  0  0  0  0  0  0  0
   -1.0100   -1.9070  -21.0590 O   0  0  0  0  0  0  0  0  0  0  0  0
   -2.0260    1.1420  -21.1930 C   0  0  0  0  0  0  0  0  0  0  0  0
   -1.1560    2.1950  -20.4860 C   0  0  0  0  0  0  0  0  0  0  0  0
   -1.3820    1.4350  -19.1700 C   0  0  0  0  0  0  0  0  0  0  0  0
   -2.7220   -0.9750  -17.0850 C   0  0  0  0  0  0  0  0  0  0  0  0
   -0.6293   -2.5547  -14.7727 H   0  0  0  0  0  0  0  0  0  0  0  0
   -0.4852   -0.8016  -15.0136 H   0  0  0  0  0  0  0  0  0  0  0  0
   -2.9823   -2.4883  -14.5252 H   0  0  0  0  0  0  0  0  0  0  0  0
   -2.5531   -0.9415  -13.7881 H   0  0  0  0  0  0  0  0  0  0  0  0
   -6.7327    1.8056  -14.5320 H   0  0  0  0  0  0  0  0  0  0  0  0
   -5.1436    2.4048  -15.1439 H   0  0  0  0  0  0  0  0  0  0  0  0
   -6.8850    4.1819  -15.1222 H   0  0  0  0  0  0  0  0  0  0  0  0
   -6.2710    3.8081  -16.7876 H   0  0  0  0  0  0  0  0  0  0  0  0
   -8.9508    3.1869  -15.5353 H   0  0  0  0  0  0  0  0  0  0  0  0
   -7.4695    6.0639  -19.8299 H   0  0  0  0  0  0  0  0  0  0  0  0
  -11.3793    6.0152  -18.1974 H   0  0  0  0  0  0  0  0  0  0  0  0
   -8.8521    1.0899  -16.2526 H   0  0  0  0  0  0  0  0  0  0  0  0
   -9.1526    1.8470  -17.8724 H   0  0  0  0  0  0  0  0  0  0  0  0
   -7.2945    0.2109  -17.9625 H   0  0  0  0  0  0  0  0  0  0  0  0
   -6.7356    1.8782  -18.3226 H   0  0  0  0  0  0  0  0  0  0  0  0
   -3.8030    0.0450  -19.9340 H   0  0  0  0  0  0  0  0  0  0  0  0
    0.2692   -0.3998  -20.4666 H   0  0  0  0  0  0  0  0  0  0  0  0
   -0.5115   -1.3552  -19.1422 H   0  0  0  0  0  0  0  0  0  0  0  0
   -0.7670   -2.7590  -20.6560 H   0  0  0  0  0  0  0  0  0  0  0  0
   -1.6258    0.7982  -22.1582 H   0  0  0  0  0  0  0  0  0  0  0  0
   -3.0510    1.3793  -21.5142 H   0  0  0  0  0  0  0  0  0  0  0  0
   -0.1091    2.2212  -20.8227 H   0  0  0  0  0  0  0  0  0  0  0  0
   -1.3781    3.2690  -20.5704 H   0  0  0  0  0  0  0  0  0  0  0  0
   -0.4787    1.3161  -18.5537 H   0  0  0  0  0  0  0  0  0  0  0  0
   -2.0568    1.8290  -18.3958 H   0  0  0  0  0  0  0  0  0  0  0  0
  1  2  2  0
  2  3  1  1
  3  4  1  0
  4  5  1  0
  5  6  2  0
  6  7  1  0
  7  8  1  0
  8  9  1  0
  9 10  1  0
 10 11  1  0
 11 12  1  0
 12 13  2  0
 13 14  1  0
 14 15  2  0
 15 16  1  0
 15 17  1  0
 17 18  2  0
 11 19  1  0
 19 20  1  0
  7 21  2  0
 21 22  1  0
 22 23  1  0
 23 24  1  0
 24 25  1  0
 25 26  1  0
 24 27  1  0
 27 28  1  0
 28 29  1  0
 22 30  2  0
 30  2  1  0
 30  5  1  0
 20  8  1  0
 29 24  1  0
 18 12  1  0
  3 31  1  0
  3 32  1  0
  4 33  1  0
  4 34  1  0
  9 35  1  0
  9 36  1  0
 10 37  1  0
 10 38  1  0
 11 39  1  0
 14 40  1  0
 17 41  1  0
 19 42  1  0
 19 43  1  0
 20 44  1  0
 20 45  1  0
 23 46  1  0
 25 47  1  0
 25 48  1  0
 26 49  1  0
 27 50  1  0
 27 51  1  0
 28 52  1  0
 28 53  1  0
 29 54  1  0
 29 55  1  0
M  END
>  <meeko>  (6) 
{"is_sidechain": false}

>  <vina_affinity_kcal_mol>  (6) 
-7.4

>  <pose_rank>  (6) 
6

$$$$

     RDKit          3D

 55 59  0  0  0  0  0  0  0  0999 V2000
   -3.7630   -4.0250  -16.5440 O   0  0  0  0  0  0  0  0  0  0  0  0
   -3.0430   -2.7990  -16.0650 S   0  0  0  0  0  4  0  0  0  0  0  0
   -3.2460   -2.7550  -14.2390 C   0  0  0  0  0  0  0  0  0  0  0  0
   -4.6620   -2.2630  -13.9700 C   0  0  0  0  0  0  0  0  0  0  0  0
   -4.9600   -1.2880  -15.0740 C   0  0  0  0  0  0  0  0  0  0  0  0
   -5.9170   -0.3570  -14.9380 N   0  0  0  0  0  0  0  0  0  0  0  0
   -6.1620    0.4140  -16.0080 C   0  0  0  0  0  0  0  0  0  0  0  0
   -7.1330    1.3930  -15.9170 N   0  0  0  0  0  0  0  0  0  0  0  0
   -6.8310    2.6040  -15.1610 C   0  0  0  0  0  0  0  0  0  0  0  0
   -7.2880    3.8430  -15.9240 C   0  0  0  0  0  0  0  0  0  0  0  0
   -8.7870    3.7890  -16.2550 C   0  0  0  0  0  0  0  0  0  0  0  0
   -9.0830    4.7120  -17.4160 C   0  0  0  0  0  0  0  0  0  0  0  0
  -10.3490    5.1580  -17.5470 N   0  0  0  0  0  0  0  0  0  0  0  0
  -10.5890    6.0040  -18.5730 C   0  0  0  0  0  0  0  0  0  0  0  0
   -9.6240    6.4210  -19.4590 C   0  0  0  0  0  0  0  0  0  0  0  0
   -9.9650    7.4920  -20.7450 Cl  0  0  0  0  0  0  0  0  0  0  0  0
   -8.3650    5.9150  -19.2380 C   0  0  0  0  0  0  0  0  0  0  0  0
   -8.0660    5.0650  -18.2300 N   0  0  0  0  0  0  0  0  0  0  0  0
   -9.2880    2.3590  -16.5150 C   0  0  0  0  0  0  0  0  0  0  0  0
   -8.1550    1.4360  -16.9580 C   0  0  0  0  0  0  0  0  0  0  0  0
   -5.4650    0.2950  -17.1590 N   0  0  0  0  0  0  0  0  0  0  0  0
   -4.4950   -0.6380  -17.2640 C   0  0  0  0  0  0  0  0  0  0  0  0
   -3.8370   -0.6180  -18.5040 N   0  0  0  0  0  0  0  0  0  0  0  0
   -2.5190   -0.0600  -18.7710 C   0  0  0  0  0  0  0  0  0  0  0  0
   -2.1810    1.1150  -17.8410 C   0  0  0  0  0  0  0  0  0  0  0  0
   -1.8930    2.2970  -18.5830 O   0  0  0  0  0  0  0  0  0  0  0  0
   -1.4530   -1.1660  -19.0240 C   0  0  0  0  0  0  0  0  0  0  0  0
   -1.0540   -0.4490  -20.3250 C   0  0  0  0  0  0  0  0  0  0  0  0
   -2.4170    0.2600  -20.3010 C   0  0  0  0  0  0  0  0  0  0  0  0
   -4.2210   -1.4800  -16.2200 C   0  0  0  0  0  0  0  0  0  0  0  0
   -3.1075   -3.7615  -13.8174 H   0  0  0  0  0  0  0  0  0  0  0  0
   -2.5010   -2.0933  -13.7730 H   0  0  0  0  0  0  0  0  0  0  0  0
   -5.3727   -3.1022  -13.9950 H   0  0  0  0  0  0  0  0  0  0  0  0
   -4.7528   -1.7983  -12.9771 H   0  0  0  0  0  0  0  0  0  0  0  0
   -7.3507    2.5642  -14.1923 H   0  0  0  0  0  0  0  0  0  0  0  0
   -5.7433    2.6637  -15.0080 H   0  0  0  0  0  0  0  0  0  0  0  0
   -7.0913    4.7330  -15.3082 H   0  0  0  0  0  0  0  0  0  0  0  0
   -6.7302    3.8861  -16.8711 H   0  0  0  0  0  0  0  0  0  0  0  0
   -9.3430    4.1375  -15.3722 H   0  0  0  0  0  0  0  0  0  0  0  0
  -11.6140    6.3801  -18.7068 H   0  0  0  0  0  0  0  0  0  0  0  0
   -7.5562    6.2185  -19.9189 H   0  0  0  0  0  0  0  0  0  0  0  0
   -9.7299    1.9621  -15.5891 H   0  0  0  0  0  0  0  0  0  0  0  0
  -10.0341    2.3983  -17.3223 H   0  0  0  0  0  0  0  0  0  0  0  0
   -8.5505    0.4235  -17.1267 H   0  0  0  0  0  0  0  0  0  0  0  0
   -7.7143    1.8155  -17.8917 H   0  0  0  0  0  0  0  0  0  0  0  0
   -4.5300   -0.1800  -19.1150 H   0  0  0  0  0  0  0  0  0  0  0  0
   -3.0391    1.3071  -17.1801 H   0  0  0  0  0  0  0  0  0  0  0  0
   -1.2897    0.8478  -17.2543 H   0  0  0  0  0  0  0  0  0  0  0  0
   -2.7460    2.6890  -18.8370 H   0  0  0  0  0  0  0  0  0  0  0  0
   -0.6557   -1.2078  -18.2673 H   0  0  0  0  0  0  0  0  0  0  0  0
   -1.7328   -2.2298  -19.0283 H   0  0  0  0  0  0  0  0  0  0  0  0
   -0.1891    0.2236  -20.2274 H   0  0  0  0  0  0  0  0  0  0  0  0
   -0.7193   -1.0129  -21.2081 H   0  0  0  0  0  0  0  0  0  0  0  0
   -2.3745    1.3333  -20.5383 H   0  0  0  0  0  0  0  0  0  0  0  0
   -3.2193   -0.0290  -20.9959 H   0  0  0  0  0  0  0  0  0  0  0  0
  1  2  2  0
  2  3  1  1
  3  4  1  0
  4  5  1  0
  5  6  2  0
  6  7  1  0
  7  8  1  0
  8  9  1  0
  9 10  1  0
 10 11  1  0
 11 12  1  0
 12 13  2  0
 13 14  1  0
 14 15  2  0
 15 16  1  0
 15 17  1  0
 17 18  2  0
 11 19  1  0
 19 20  1  0
  7 21  2  0
 21 22  1  0
 22 23  1  0
 23 24  1  0
 24 25  1  0
 25 26  1  0
 24 27  1  0
 27 28  1  0
 28 29  1  0
 22 30  2  0
 30  2  1  0
 30  5  1  0
 20  8  1  0
 29 24  1  0
 18 12  1  0
  3 31  1  0
  3 32  1  0
  4 33  1  0
  4 34  1  0
  9 35  1  0
  9 36  1  0
 10 37  1  0
 10 38  1  0
 11 39  1  0
 14 40  1  0
 17 41  1  0
 19 42  1  0
 19 43  1  0
 20 44  1  0
 20 45  1  0
 23 46  1  0
 25 47  1  0
 25 48  1  0
 26 49  1  0
 27 50  1  0
 27 51  1  0
 28 52  1  0
 28 53  1  0
 29 54  1  0
 29 55  1  0
M  END
>  <meeko>  (7) 
{"is_sidechain": false}

>  <vina_affinity_kcal_mol>  (7) 
-7.361

>  <pose_rank>  (7) 
7

$$$$

     RDKit          3D

 55 59  0  0  0  0  0  0  0  0999 V2000
  -11.5400    5.2160  -14.0300 O   0  0  0  0  0  0  0  0  0  0  0  0
  -11.8300    3.9790  -14.8290 S   0  0  0  0  0  4  0  0  0  0  0  0
  -11.8330    2.5780  -13.6400 C   0  0  0  0  0  0  0  0  0  0  0  0
  -10.3740    2.2670  -13.3300 C   0  0  0  0  0  0  0  0  0  0  0  0
   -9.6280    2.5510  -14.6040 C   0  0  0  0  0  0  0  0  0  0  0  0
   -8.4260    2.0030  -14.8400 N   0  0  0  0  0  0  0  0  0  0  0  0
   -7.8050    2.3790  -15.9680 C   0  0  0  0  0  0  0  0  0  0  0  0
   -6.5680    1.8380  -16.2610 N   0  0  0  0  0  0  0  0  0  0  0  0
   -5.5010    1.9670  -15.2740 C   0  0  0  0  0  0  0  0  0  0  0  0
   -4.7570    0.6450  -15.1110 C   0  0  0  0  0  0  0  0  0  0  0  0
   -4.1830    0.1450  -16.4440 C   0  0  0  0  0  0  0  0  0  0  0  0
   -3.9370   -1.3450  -16.3630 C   0  0  0  0  0  0  0  0  0  0  0  0
   -2.7590   -1.8060  -16.8310 N   0  0  0  0  0  0  0  0  0  0  0  0
   -2.5460   -3.1370  -16.7240 C   0  0  0  0  0  0  0  0  0  0  0  0
   -3.4500   -4.0120  -16.1710 C   0  0  0  0  0  0  0  0  0  0  0  0
   -3.1450   -5.6890  -16.0530 Cl  0  0  0  0  0  0  0  0  0  0  0  0
   -4.6170   -3.4440  -15.7190 C   0  0  0  0  0  0  0  0  0  0  0  0
   -4.8870   -2.1210  -15.8000 N   0  0  0  0  0  0  0  0  0  0  0  0
   -5.0630    0.5180  -17.6490 C   0  0  0  0  0  0  0  0  0  0  0  0
   -6.5140    0.7540  -17.2360 C   0  0  0  0  0  0  0  0  0  0  0  0
   -8.3640    3.2380  -16.8470 N   0  0  0  0  0  0  0  0  0  0  0  0
   -9.5830    3.7610  -16.5950 C   0  0  0  0  0  0  0  0  0  0  0  0
  -10.0470    4.6070  -17.6150 N   0  0  0  0  0  0  0  0  0  0  0  0
   -9.3810    5.8020  -18.1130 C   0  0  0  0  0  0  0  0  0  0  0  0
   -8.0560    5.4810  -18.8210 C   0  0  0  0  0  0  0  0  0  0  0  0
   -7.8500    6.3330  -19.9450 O   0  0  0  0  0  0  0  0  0  0  0  0
  -10.3790    6.7990  -18.7710 C   0  0  0  0  0  0  0  0  0  0  0  0
   -9.8090    7.9180  -17.8830 C   0  0  0  0  0  0  0  0  0  0  0  0
   -9.2680    6.8330  -16.9380 C   0  0  0  0  0  0  0  0  0  0  0  0
  -10.2520    3.4440  -15.4440 C   0  0  0  0  0  0  0  0  0  0  0  0
  -12.3643    2.8624  -12.7197 H   0  0  0  0  0  0  0  0  0  0  0  0
  -12.3446    1.7005  -14.0622 H   0  0  0  0  0  0  0  0  0  0  0  0
  -10.0072    2.9109  -12.5171 H   0  0  0  0  0  0  0  0  0  0  0  0
  -10.2380    1.2270  -12.9985 H   0  0  0  0  0  0  0  0  0  0  0  0
   -4.7936    2.7414  -15.6056 H   0  0  0  0  0  0  0  0  0  0  0  0
   -5.9447    2.2456  -14.3068 H   0  0  0  0  0  0  0  0  0  0  0  0
   -3.9309    0.7870  -14.3987 H   0  0  0  0  0  0  0  0  0  0  0  0
   -5.4717   -0.1062  -14.7436 H   0  0  0  0  0  0  0  0  0  0  0  0
   -3.2236    0.6557  -16.6136 H   0  0  0  0  0  0  0  0  0  0  0  0
   -1.5954   -3.5423  -17.1009 H   0  0  0  0  0  0  0  0  0  0  0  0
   -5.3735   -4.1018  -15.2662 H   0  0  0  0  0  0  0  0  0  0  0  0
   -4.6688    1.4368  -18.1077 H   0  0  0  0  0  0  0  0  0  0  0  0
   -5.0409   -0.3190  -18.3624 H   0  0  0  0  0  0  0  0  0  0  0  0
   -7.1083    1.0258  -18.1209 H   0  0  0  0  0  0  0  0  0  0  0  0
   -6.9238   -0.1639  -16.7893 H   0  0  0  0  0  0  0  0  0  0  0  0
  -10.9890    4.8440  -17.2930 H   0  0  0  0  0  0  0  0  0  0  0  0
   -7.2276    5.6185  -18.1105 H   0  0  0  0  0  0  0  0  0  0  0  0
   -8.0952    4.4407  -19.1763 H   0  0  0  0  0  0  0  0  0  0  0  0
   -8.5830    6.9730  -19.9550 H   0  0  0  0  0  0  0  0  0  0  0  0
  -10.2214    6.9520  -19.8488 H   0  0  0  0  0  0  0  0  0  0  0  0
  -11.4583    6.5877  -18.7899 H   0  0  0  0  0  0  0  0  0  0  0  0
   -9.0327    8.5307  -18.3647 H   0  0  0  0  0  0  0  0  0  0  0  0
  -10.4476    8.7326  -17.5108 H   0  0  0  0  0  0  0  0  0  0  0  0
   -8.2409    7.0089  -16.5856 H   0  0  0  0  0  0  0  0  0  0  0  0
   -9.7430    6.6392  -15.9649 H   0  0  0  0  0  0  0  0  0  0  0  0
  1  2  2  0
  2  3  1  1
  3  4  1  0
  4  5  1  0
  5  6  2  0
  6  7  1  0
  7  8  1  0
  8  9  1  0
  9 10  1  0
 10 11  1  0
 11 12  1  0
 12 13  2  0
 13 14  1  0
 14 15  2  0
 15 16  1  0
 15 17  1  0
 17 18  2  0
 11 19  1  0
 19 20  1  0
  7 21  2  0
 21 22  1  0
 22 23  1  0
 23 24  1  0
 24 25  1  0
 25 26  1  0
 24 27  1  0
 27 28  1  0
 28 29  1  0
 22 30  2  0
 30  2  1  0
 30  5  1  0
 20  8  1  0
 29 24  1  0
 18 12  1  0
  3 31  1  0
  3 32  1  0
  4 33  1  0
  4 34  1  0
  9 35  1  0
  9 36  1  0
 10 37  1  0
 10 38  1  0
 11 39  1  0
 14 40  1  0
 17 41  1  0
 19 42  1  0
 19 43  1  0
 20 44  1  0
 20 45  1  0
 23 46  1  0
 25 47  1  0
 25 48  1  0
 26 49  1  0
 27 50  1  0
 27 51  1  0
 28 52  1  0
 28 53  1  0
 29 54  1  0
 29 55  1  0
M  END
>  <meeko>  (8) 
{"is_sidechain": false}

>  <vina_affinity_kcal_mol>  (8) 
-7.148

>  <pose_rank>  (8) 
8

$$$$

     RDKit          3D

 55 59  0  0  0  0  0  0  0  0999 V2000
   -4.7270   -5.3150  -16.0130 O   0  0  0  0  0  0  0  0  0  0  0  0
   -3.9300   -4.2750  -15.2800 S   0  0  0  0  0  4  0  0  0  0  0  0
   -4.2290   -4.5560  -13.4880 C   0  0  0  0  0  0  0  0  0  0  0  0
   -5.6110   -3.9900  -13.1830 C   0  0  0  0  0  0  0  0  0  0  0  0
   -5.7620   -2.8010  -14.0910 C   0  0  0  0  0  0  0  0  0  0  0  0
   -6.6400   -1.8260  -13.8140 N   0  0  0  0  0  0  0  0  0  0  0  0
   -6.7590   -0.8470  -14.7240 C   0  0  0  0  0  0  0  0  0  0  0  0
   -7.6450    0.1850  -14.4830 N   0  0  0  0  0  0  0  0  0  0  0  0
   -7.1890    1.3230  -13.6910 C   0  0  0  0  0  0  0  0  0  0  0  0
   -7.6250    2.6360  -14.3340 C   0  0  0  0  0  0  0  0  0  0  0  0
   -9.1480    2.7000  -14.5210 C   0  0  0  0  0  0  0  0  0  0  0  0
   -9.4840    3.7140  -15.5920 C   0  0  0  0  0  0  0  0  0  0  0  0
   -8.6800    3.7650  -16.6730 N   0  0  0  0  0  0  0  0  0  0  0  0
   -9.0120    4.6580  -17.6330 C   0  0  0  0  0  0  0  0  0  0  0  0
  -10.1060    5.4860  -17.5560 C   0  0  0  0  0  0  0  0  0  0  0  0
  -10.4940    6.6030  -18.7900 Cl  0  0  0  0  0  0  0  0  0  0  0  0
  -10.8650    5.3560  -16.4180 C   0  0  0  0  0  0  0  0  0  0  0  0
  -10.5820    4.4820  -15.4250 N   0  0  0  0  0  0  0  0  0  0  0  0
   -9.7710    1.3260  -14.8140 C   0  0  0  0  0  0  0  0  0  0  0  0
   -8.7530    0.3610  -15.4170 C   0  0  0  0  0  0  0  0  0  0  0  0
   -6.0130   -0.8140  -15.8490 N   0  0  0  0  0  0  0  0  0  0  0  0
   -5.1220   -1.7990  -16.0950 C   0  0  0  0  0  0  0  0  0  0  0  0
   -4.3980   -1.6100  -17.2830 N   0  0  0  0  0  0  0  0  0  0  0  0
   -3.3490   -0.6240  -17.5050 C   0  0  0  0  0  0  0  0  0  0  0  0
   -3.7060    0.3690  -18.6200 C   0  0  0  0  0  0  0  0  0  0  0  0
   -5.0040    0.9250  -18.4230 O   0  0  0  0  0  0  0  0  0  0  0  0
   -2.7520   -0.0920  -16.1690 C   0  0  0  0  0  0  0  0  0  0  0  0
   -1.3440   -0.4160  -16.6990 C   0  0  0  0  0  0  0  0  0  0  0  0
   -1.9920   -1.3810  -17.7040 C   0  0  0  0  0  0  0  0  0  0  0  0
   -4.9800   -2.8440  -15.2230 C   0  0  0  0  0  0  0  0  0  0  0  0
   -4.2016   -5.6324  -13.2629 H   0  0  0  0  0  0  0  0  0  0  0  0
   -3.4565   -4.0679  -12.8756 H   0  0  0  0  0  0  0  0  0  0  0  0
   -6.3891   -4.7380  -13.3951 H   0  0  0  0  0  0  0  0  0  0  0  0
   -5.7161   -3.7130  -12.1236 H   0  0  0  0  0  0  0  0  0  0  0  0
   -7.6188    1.2554  -12.6807 H   0  0  0  0  0  0  0  0  0  0  0  0
   -6.0904    1.3014  -13.6403 H   0  0  0  0  0  0  0  0  0  0  0  0
   -7.3098    3.4701  -13.6899 H   0  0  0  0  0  0  0  0  0  0  0  0
   -7.1550    2.7040  -15.3262 H   0  0  0  0  0  0  0  0  0  0  0  0
   -9.5940    3.0250  -13.5695 H   0  0  0  0  0  0  0  0  0  0  0  0
   -8.3710    4.7252  -18.5244 H   0  0  0  0  0  0  0  0  0  0  0  0
  -11.7515    5.9979  -16.3084 H   0  0  0  0  0  0  0  0  0  0  0  0
  -10.1528    0.9001  -13.8744 H   0  0  0  0  0  0  0  0  0  0  0  0
  -10.5834    1.4663  -15.5422 H   0  0  0  0  0  0  0  0  0  0  0  0
   -9.2336   -0.6105  -15.6046 H   0  0  0  0  0  0  0  0  0  0  0  0
   -8.3746    0.7691  -16.3658 H   0  0  0  0  0  0  0  0  0  0  0  0
   -5.1390   -1.4900  -17.9770 H   0  0  0  0  0  0  0  0  0  0  0  0
   -2.9652    1.1821  -18.6263 H   0  0  0  0  0  0  0  0  0  0  0  0
   -3.7011   -0.1697  -19.5791 H   0  0  0  0  0  0  0  0  0  0  0  0
   -4.9400    1.5380  -17.6710 H   0  0  0  0  0  0  0  0  0  0  0  0
   -2.9321    0.9777  -15.9868 H   0  0  0  0  0  0  0  0  0  0  0  0
   -3.0955   -0.4846  -15.2006 H   0  0  0  0  0  0  0  0  0  0  0  0
   -0.8227    0.4370  -17.1579 H   0  0  0  0  0  0  0  0  0  0  0  0
   -0.5422   -0.7487  -16.0235 H   0  0  0  0  0  0  0  0  0  0  0  0
   -1.5822   -1.3177  -18.7229 H   0  0  0  0  0  0  0  0  0  0  0  0
   -1.9249   -2.4706  -17.5687 H   0  0  0  0  0  0  0  0  0  0  0  0
  1  2  2  0
  2  3  1  1
  3  4  1  0
  4  5  1  0
  5  6  2  0
  6  7  1  0
  7  8  1  0
  8  9  1  0
  9 10  1  0
 10 11  1  0
 11 12  1  0
 12 13  2  0
 13 14  1  0
 14 15  2  0
 15 16  1  0
 15 17  1  0
 17 18  2  0
 11 19  1  0
 19 20  1  0
  7 21  2  0
 21 22  1  0
 22 23  1  0
 23 24  1  0
 24 25  1  0
 25 26  1  0
 24 27  1  0
 27 28  1  0
 28 29  1  0
 22 30  2  0
 30  2  1  0
 30  5  1  0
 20  8  1  0
 29 24  1  0
 18 12  1  0
  3 31  1  0
  3 32  1  0
  4 33  1  0
  4 34  1  0
  9 35  1  0
  9 36  1  0
 10 37  1  0
 10 38  1  0
 11 39  1  0
 14 40  1  0
 17 41  1  0
 19 42  1  0
 19 43  1  0
 20 44  1  0
 20 45  1  0
 23 46  1  0
 25 47  1  0
 25 48  1  0
 26 49  1  0
 27 50  1  0
 27 51  1  0
 28 52  1  0
 28 53  1  0
 29 54  1  0
 29 55  1  0
M  END
>  <meeko>  (9) 
{"is_sidechain": false}

>  <vina_affinity_kcal_mol>  (9) 
-7.132

>  <pose_rank>  (9) 
9

$$$$

     RDKit          3D

 55 59  0  0  0  0  0  0  0  0999 V2000
   -6.3040   -4.2240  -11.8550 O   0  0  0  0  0  0  0  0  0  0  0  0
   -5.0060   -3.4960  -11.6570 S   0  0  0  0  0  4  0  0  0  0  0  0
   -5.3290   -2.1830  -10.4120 C   0  0  0  0  0  0  0  0  0  0  0  0
   -6.0660   -1.0650  -11.1400 C   0  0  0  0  0  0  0  0  0  0  0  0
   -5.5060   -1.0630  -12.5350 C   0  0  0  0  0  0  0  0  0  0  0  0
   -5.5970    0.0240  -13.3160 N   0  0  0  0  0  0  0  0  0  0  0  0
   -5.1390   -0.0990  -14.5720 C   0  0  0  0  0  0  0  0  0  0  0  0
   -5.2030    0.9940  -15.4150 N   0  0  0  0  0  0  0  0  0  0  0  0
   -5.2010    0.7610  -16.8560 C   0  0  0  0  0  0  0  0  0  0  0  0
   -6.2560    1.6230  -17.5420 C   0  0  0  0  0  0  0  0  0  0  0  0
   -6.0520    3.1160  -17.2490 C   0  0  0  0  0  0  0  0  0  0  0  0
   -7.3490    3.8600  -17.4760 C   0  0  0  0  0  0  0  0  0  0  0  0
   -7.3260    4.9010  -18.3320 N   0  0  0  0  0  0  0  0  0  0  0  0
   -8.5010    5.5360  -18.5430 C   0  0  0  0  0  0  0  0  0  0  0  0
   -9.6830    5.1710  -17.9450 C   0  0  0  0  0  0  0  0  0  0  0  0
  -11.1500    5.9970  -18.2370 Cl  0  0  0  0  0  0  0  0  0  0  0  0
   -9.6040    4.0940  -17.0940 C   0  0  0  0  0  0  0  0  0  0  0  0
   -8.4570    3.4210  -16.8420 N   0  0  0  0  0  0  0  0  0  0  0  0
   -5.4780    3.3750  -15.8470 C   0  0  0  0  0  0  0  0  0  0  0  0
   -5.7840    2.2250  -14.8900 C   0  0  0  0  0  0  0  0  0  0  0  0
   -4.5810   -1.2400  -15.0280 N   0  0  0  0  0  0  0  0  0  0  0  0
   -4.4850   -2.3140  -14.2150 C   0  0  0  0  0  0  0  0  0  0  0  0
   -3.8510   -3.4130  -14.8170 N   0  0  0  0  0  0  0  0  0  0  0  0
   -4.5060   -4.6000  -15.3480 C   0  0  0  0  0  0  0  0  0  0  0  0
   -6.0250   -4.4210  -15.4800 C   0  0  0  0  0  0  0  0  0  0  0  0
   -6.7230   -5.1690  -14.4880 O   0  0  0  0  0  0  0  0  0  0  0  0
   -3.7050   -5.2360  -16.5230 C   0  0  0  0  0  0  0  0  0  0  0  0
   -3.7750   -6.5930  -15.8020 C   0  0  0  0  0  0  0  0  0  0  0  0
   -4.0580   -5.8360  -14.4960 C   0  0  0  0  0  0  0  0  0  0  0  0
   -4.9660   -2.2640  -12.9350 C   0  0  0  0  0  0  0  0  0  0  0  0
   -5.9508   -2.5788   -9.5955 H   0  0  0  0  0  0  0  0  0  0  0  0
   -4.3911   -1.8171   -9.9687 H   0  0  0  0  0  0  0  0  0  0  0  0
   -7.1474   -1.2653  -11.1593 H   0  0  0  0  0  0  0  0  0  0  0  0
   -5.9310   -0.0932  -10.6426 H   0  0  0  0  0  0  0  0  0  0  0  0
   -4.2098    1.0124  -17.2612 H   0  0  0  0  0  0  0  0  0  0  0  0
   -5.4322   -0.2979  -17.0438 H   0  0  0  0  0  0  0  0  0  0  0  0
   -6.1956    1.4620  -18.6285 H   0  0  0  0  0  0  0  0  0  0  0  0
   -7.2423    1.3302  -17.1527 H   0  0  0  0  0  0  0  0  0  0  0  0
   -5.2953    3.4988  -17.9496 H   0  0  0  0  0  0  0  0  0  0  0  0
   -8.5112    6.3932  -19.2323 H   0  0  0  0  0  0  0  0  0  0  0  0
  -10.5234    3.7610  -16.5903 H   0  0  0  0  0  0  0  0  0  0  0  0
   -4.3872    3.4934  -15.9247 H   0  0  0  0  0  0  0  0  0  0  0  0
   -5.9461    4.2869  -15.4479 H   0  0  0  0  0  0  0  0  0  0  0  0
   -5.3515    2.4436  -13.9025 H   0  0  0  0  0  0  0  0  0  0  0  0
   -6.8732    2.1063  -14.7925 H   0  0  0  0  0  0  0  0  0  0  0  0
   -3.1610   -3.6830  -14.1130 H   0  0  0  0  0  0  0  0  0  0  0  0
   -6.2715   -3.3552  -15.3645 H   0  0  0  0  0  0  0  0  0  0  0  0
   -6.3327   -4.7866  -16.4708 H   0  0  0  0  0  0  0  0  0  0  0  0
   -6.2140   -5.9840  -14.3350 H   0  0  0  0  0  0  0  0  0  0  0  0
   -4.2253   -5.2106  -17.4918 H   0  0  0  0  0  0  0  0  0  0  0  0
   -2.7404   -4.8149  -16.8427 H   0  0  0  0  0  0  0  0  0  0  0  0
   -4.5951   -7.2449  -16.1373 H   0  0  0  0  0  0  0  0  0  0  0  0
   -2.9529   -7.3204  -15.8735 H   0  0  0  0  0  0  0  0  0  0  0  0
   -4.8563   -6.2761  -13.8803 H   0  0  0  0  0  0  0  0  0  0  0  0
   -3.2865   -5.7390  -13.7179 H   0  0  0  0  0  0  0  0  0  0  0  0
  1  2  2  0
  2  3  1  1
  3  4  1  0
  4  5  1  0
  5  6  2  0
  6  7  1  0
  7  8  1  0
  8  9  1  0
  9 10  1  0
 10 11  1  0
 11 12  1  0
 12 13  2  0
 13 14  1  0
 14 15  2  0
 15 16  1  0
 15 17  1  0
 17 18  2  0
 11 19  1  0
 19 20  1  0
  7 21  2  0
 21 22  1  0
 22 23  1  0
 23 24  1  0
 24 25  1  0
 25 26  1  0
 24 27  1  0
 27 28  1  0
 28 29  1  0
 22 30  2  0
 30  2  1  0
 30  5  1  0
 20  8  1  0
 29 24  1  0
 18 12  1  0
  3 31  1  0
  3 32  1  0
  4 33  1  0
  4 34  1  0
  9 35  1  0
  9 36  1  0
 10 37  1  0
 10 38  1  0
 11 39  1  0
 14 40  1  0
 17 41  1  0
 19 42  1  0
 19 43  1  0
 20 44  1  0
 20 45  1  0
 23 46  1  0
 25 47  1  0
 25 48  1  0
 26 49  1  0
 27 50  1  0
 27 51  1  0
 28 52  1  0
 28 53  1  0
 29 54  1  0
 29 55  1  0
M  END
>  <meeko>  (10) 
{"is_sidechain": false}

>  <vina_affinity_kcal_mol>  (10) 
-7.086

>  <pose_rank>  (10) 
10

$$$$
