
     RDKit          3D

 68 72  0  0  0  0  0  0  0  0999 V2000
   -4.2718   -1.4181   -4.7205 C   0  0  0  0  0  0  0  0  0  0  0  0
   -3.1447   -1.3741   -3.7223 C   0  0  0  0  0  0  0  0  0  0  0  0
   -1.9026   -1.9124   -4.0980 C   0  0  0  0  0  0  0  0  0  0  0  0
   -0.8169   -1.8987   -3.2219 C   0  0  0  0  0  0  0  0  0  0  0  0
   -0.9537   -1.3485   -1.9539 C   0  0  0  0  0  0  0  0  0  0  0  0
    0.0901   -1.2823   -1.0058 N   0  0  0  0  0  0  0  0  0  0  0  0
    1.3646   -1.8065   -1.1191 C   0  0  0  0  0  0  0  0  0  0  0  0
    1.8009   -2.4907   -2.0370 O   0  0  0  0  0  0  0  0  0  0  0  0
    2.2616   -1.5241    0.0380 C   0  0  0  0  0  0  0  0  0  0  0  0
    3.1895   -2.4994    0.4165 C   0  0  0  0  0  0  0  0  0  0  0  0
    4.0480   -2.2725    1.4952 C   0  0  0  0  0  0  0  0  0  0  0  0
    4.0059   -1.0616    2.2025 C   0  0  0  0  0  0  0  0  0  0  0  0
    4.9394   -0.8138    3.3718 C   0  0  0  0  0  0  0  0  0  0  0  0
    6.2246   -0.1798    3.0755 N   0  0  0  0  0  0  0  0  0  0  0  0
    7.1480   -0.9673    2.2457 C   0  0  0  0  0  0  0  0  0  0  0  0
    7.4435   -0.3497    0.8589 C   0  0  0  0  0  0  0  0  0  0  0  0
    7.9323    1.0446    0.8954 N   0  0  0  0  0  0  0  0  0  0  0  0
    9.3834    1.1180    0.7559 C   0  0  0  0  0  0  0  0  0  0  0  0
    7.4921    1.7427    2.1215 C   0  0  0  0  0  0  0  0  0  0  0  0
    6.1354    1.2234    2.6466 C   0  0  0  0  0  0  0  0  0  0  0  0
    3.0747   -0.0869    1.8108 C   0  0  0  0  0  0  0  0  0  0  0  0
    2.2139   -0.3094    0.7315 C   0  0  0  0  0  0  0  0  0  0  0  0
   -2.1941   -0.8083   -1.5784 C   0  0  0  0  0  0  0  0  0  0  0  0
   -3.3072   -0.8115   -2.4358 C   0  0  0  0  0  0  0  0  0  0  0  0
   -4.5445   -0.2634   -2.0640 N   0  0  0  0  0  0  0  0  0  0  0  0
   -5.0270    0.3948   -0.9364 C   0  0  0  0  0  0  0  0  0  0  0  0
   -4.2479    0.6920    0.1112 N   0  0  0  0  0  0  0  0  0  0  0  0
   -4.8208    1.3338    1.1421 C   0  0  0  0  0  0  0  0  0  0  0  0
   -6.1429    1.6991    1.1684 C   0  0  0  0  0  0  0  0  0  0  0  0
   -6.8859    1.3669    0.0548 C   0  0  0  0  0  0  0  0  0  0  0  0
   -8.3182    1.6845   -0.0809 C   0  0  0  0  0  0  0  0  0  0  0  0
   -8.9204    2.7966    0.5278 C   0  0  0  0  0  0  0  0  0  0  0  0
  -10.2844    3.0453    0.3664 C   0  0  0  0  0  0  0  0  0  0  0  0
  -11.0255    2.1715   -0.4079 C   0  0  0  0  0  0  0  0  0  0  0  0
  -10.4998    1.0926   -1.0189 N   0  0  0  0  0  0  0  0  0  0  0  0
   -9.1691    0.8822   -0.8457 C   0  0  0  0  0  0  0  0  0  0  0  0
   -6.3317    0.7113   -0.9905 N   0  0  0  0  0  0  0  0  0  0  0  0
   -4.6208   -0.4049   -4.9446 H   0  0  0  0  0  0  0  0  0  0  0  0
   -5.1016   -2.0154   -4.3292 H   0  0  0  0  0  0  0  0  0  0  0  0
   -3.9575   -1.8723   -5.6664 H   0  0  0  0  0  0  0  0  0  0  0  0
   -1.7661   -2.3487   -5.0856 H   0  0  0  0  0  0  0  0  0  0  0  0
    0.1217   -2.3216   -3.5650 H   0  0  0  0  0  0  0  0  0  0  0  0
   -0.1567   -0.8564   -0.1222 H   0  0  0  0  0  0  0  0  0  0  0  0
    3.2432   -3.4409   -0.1271 H   0  0  0  0  0  0  0  0  0  0  0  0
    4.7507   -3.0526    1.7794 H   0  0  0  0  0  0  0  0  0  0  0  0
    5.1237   -1.7691    3.8819 H   0  0  0  0  0  0  0  0  0  0  0  0
    4.4084   -0.2125    4.1223 H   0  0  0  0  0  0  0  0  0  0  0  0
    6.8169   -2.0038    2.1242 H   0  0  0  0  0  0  0  0  0  0  0  0
    8.0964   -1.0358    2.7948 H   0  0  0  0  0  0  0  0  0  0  0  0
    8.1359   -0.9990    0.3086 H   0  0  0  0  0  0  0  0  0  0  0  0
    6.5143   -0.3541    0.2745 H   0  0  0  0  0  0  0  0  0  0  0  0
    9.6987    0.6939   -0.2038 H   0  0  0  0  0  0  0  0  0  0  0  0
    9.9043    0.5819    1.5573 H   0  0  0  0  0  0  0  0  0  0  0  0
    9.7186    2.1612    0.7624 H   0  0  0  0  0  0  0  0  0  0  0  0
    8.2341    1.6371    2.9253 H   0  0  0  0  0  0  0  0  0  0  0  0
    7.4075    2.8135    1.9026 H   0  0  0  0  0  0  0  0  0  0  0  0
    5.3941    1.3636    1.8524 H   0  0  0  0  0  0  0  0  0  0  0  0
    5.8232    1.8395    3.4976 H   0  0  0  0  0  0  0  0  0  0  0  0
    3.0255    0.8630    2.3398 H   0  0  0  0  0  0  0  0  0  0  0  0
    1.5375    0.4850    0.4279 H   0  0  0  0  0  0  0  0  0  0  0  0
   -2.2895   -0.3812   -0.5861 H   0  0  0  0  0  0  0  0  0  0  0  0
   -5.3071   -0.3676   -2.7157 H   0  0  0  0  0  0  0  0  0  0  0  0
   -4.1614    1.5510    1.9772 H   0  0  0  0  0  0  0  0  0  0  0  0
   -6.5608    2.2016    2.0295 H   0  0  0  0  0  0  0  0  0  0  0  0
   -8.3358    3.4963    1.1194 H   0  0  0  0  0  0  0  0  0  0  0  0
  -10.7547    3.9054    0.8300 H   0  0  0  0  0  0  0  0  0  0  0  0
  -12.0897    2.3221   -0.5645 H   0  0  0  0  0  0  0  0  0  0  0  0
   -8.7913    0.0008   -1.3604 H   0  0  0  0  0  0  0  0  0  0  0  0
  1  2  1  0
  2  3  1  0
  3  4  2  0
  4  5  1  0
  5  6  1  0
  6  7  1  0
  7  8  2  0
  7  9  1  0
  9 10  1  0
 10 11  2  0
 11 12  1  0
 12 13  1  0
 13 14  1  0
 14 15  1  0
 15 16  1  0
 16 17  1  0
 17 18  1  0
 17 19  1  0
 19 20  1  0
 12 21  2  0
 21 22  1  0
  5 23  2  0
 23 24  1  0
 24 25  1  0
 25 26  1  0
 26 27  2  0
 27 28  1  0
 28 29  2  0
 29 30  1  0
 30 31  1  0
 31 32  1  0
 32 33  2  0
 33 34  1  0
 34 35  2  0
 35 36  1  0
 30 37  2  0
 24  2  2  0
 37 26  1  0
 22  9  2  0
 36 31  2  0
 20 14  1  0
  1 38  1  0
  1 39  1  0
  1 40  1  0
  3 41  1  0
  4 42  1  0
  6 43  1  0
 10 44  1  0
 11 45  1  0
 13 46  1  0
 13 47  1  0
 15 48  1  0
 15 49  1  0
 16 50  1  0
 16 51  1  0
 18 52  1  0
 18 53  1  0
 18 54  1  0
 19 55  1  0
 19 56  1  0
 20 57  1  0
 20 58  1  0
 21 59  1  0
 22 60  1  0
 23 61  1  0
 25 62  1  0
 28 63  1  0
 29 64  1  0
 32 65  1  0
 33 66  1  0
 34 67  1  0
 36 68  1  0
M  END
$$$$
