
     RDKit          3D

 68 72  0  0  0  0  0  0  0  0999 V2000
  -42.6930  160.8950   -0.0160 C   0  0  0  0  0  0  0  0  0  0  0  0
  -41.7540  160.0950    0.8490 C   0  0  0  0  0  0  0  0  0  0  0  0
  -42.3050  159.2860    1.8560 C   0  0  0  0  0  0  0  0  0  0  0  0
  -41.4910  158.5160    2.6890 C   0  0  0  0  0  0  0  0  0  0  0  0
  -40.1120  158.5430    2.5290 C   0  0  0  0  0  0  0  0  0  0  0  0
  -39.2120  157.7920    3.3160 N   0  0  0  0  0  0  0  0  0  0  0  0
  -37.8740  157.5460    3.0640 C   0  0  0  0  0  0  0  0  0  0  0  0
  -37.2400  157.8760    2.0690 O   0  0  0  0  0  0  0  0  0  0  0  0
  -37.1740  156.7570    4.1180 C   0  0  0  0  0  0  0  0  0  0  0  0
  -35.8030  156.9610    4.3030 C   0  0  0  0  0  0  0  0  0  0  0  0
  -35.1110  156.2410    5.2790 C   0  0  0  0  0  0  0  0  0  0  0  0
  -35.7790  155.3190    6.1000 C   0  0  0  0  0  0  0  0  0  0  0  0
  -35.0290  154.5400    7.1620 C   0  0  0  0  0  0  0  0  0  0  0  0
  -34.8250  153.1100    6.9200 N   0  0  0  0  0  0  0  0  0  0  0  0
  -35.8590  152.2180    7.4600 C   0  0  0  0  0  0  0  0  0  0  0  0
  -36.6690  151.4570    6.3850 C   0  0  0  0  0  0  0  0  0  0  0  0
  -35.8500  150.6850    5.4250 N   0  0  0  0  0  0  0  0  0  0  0  0
  -35.7980  149.2680    5.7690 C   0  0  0  0  0  0  0  0  0  0  0  0
  -34.4860  151.2420    5.3060 C   0  0  0  0  0  0  0  0  0  0  0  0
  -34.4440  152.7680    5.5430 C   0  0  0  0  0  0  0  0  0  0  0  0
  -37.1570  155.1270    5.9100 C   0  0  0  0  0  0  0  0  0  0  0  0
  -37.8540  155.8450    4.9340 C   0  0  0  0  0  0  0  0  0  0  0  0
  -39.5600  159.3490    1.5210 C   0  0  0  0  0  0  0  0  0  0  0  0
  -40.3520  160.1390    0.6700 C   0  0  0  0  0  0  0  0  0  0  0  0
  -39.8020  160.9380   -0.3440 N   0  0  0  0  0  0  0  0  0  0  0  0
  -39.4510  160.7310   -1.6750 C   0  0  0  0  0  0  0  0  0  0  0  0
  -39.3680  159.5090   -2.2140 N   0  0  0  0  0  0  0  0  0  0  0  0
  -39.0260  159.4300   -3.5100 C   0  0  0  0  0  0  0  0  0  0  0  0
  -38.7690  160.5260   -4.2950 C   0  0  0  0  0  0  0  0  0  0  0  0
  -38.8780  161.7530   -3.6770 C   0  0  0  0  0  0  0  0  0  0  0  0
  -38.6380  163.0290   -4.3730 C   0  0  0  0  0  0  0  0  0  0  0  0
  -38.3340  163.1130   -5.7410 C   0  0  0  0  0  0  0  0  0  0  0  0
  -38.1120  164.3520   -6.3450 C   0  0  0  0  0  0  0  0  0  0  0  0
  -38.1990  165.4900   -5.5650 C   0  0  0  0  0  0  0  0  0  0  0  0
  -38.4920  165.4690   -4.2520 N   0  0  0  0  0  0  0  0  0  0  0  0
  -38.7080  164.2490   -3.6940 C   0  0  0  0  0  0  0  0  0  0  0  0
  -39.2110  161.8550   -2.3700 N   0  0  0  0  0  0  0  0  0  0  0  0
  -43.3748  161.4758    0.6226 H   0  0  0  0  0  0  0  0  0  0  0  0
  -42.1124  161.5803   -0.6511 H   0  0  0  0  0  0  0  0  0  0  0  0
  -43.2774  160.2130   -0.6511 H   0  0  0  0  0  0  0  0  0  0  0  0
  -43.3964  159.2585    1.9908 H   0  0  0  0  0  0  0  0  0  0  0  0
  -41.9419  157.8883    3.4717 H   0  0  0  0  0  0  0  0  0  0  0  0
  -39.6220  157.3330    4.1200 H   0  0  0  0  0  0  0  0  0  0  0  0
  -35.2680  157.6909    3.6777 H   0  0  0  0  0  0  0  0  0  0  0  0
  -34.0297  156.3982    5.4060 H   0  0  0  0  0  0  0  0  0  0  0  0
  -34.0371  155.0022    7.2736 H   0  0  0  0  0  0  0  0  0  0  0  0
  -35.6679  154.5894    8.0561 H   0  0  0  0  0  0  0  0  0  0  0  0
  -35.3699  151.4780    8.1105 H   0  0  0  0  0  0  0  0  0  0  0  0
  -36.5743  152.8560    7.9997 H   0  0  0  0  0  0  0  0  0  0  0  0
  -37.3462  150.7578    6.8974 H   0  0  0  0  0  0  0  0  0  0  0  0
  -37.1992  152.2207    5.7971 H   0  0  0  0  0  0  0  0  0  0  0  0
  -35.7939  149.1563    6.8633 H   0  0  0  0  0  0  0  0  0  0  0  0
  -36.6780  148.7568    5.3515 H   0  0  0  0  0  0  0  0  0  0  0  0
  -34.8829  148.8227    5.3515 H   0  0  0  0  0  0  0  0  0  0  0  0
  -33.8395  150.7523    6.0491 H   0  0  0  0  0  0  0  0  0  0  0  0
  -34.1384  151.0549    4.2793 H   0  0  0  0  0  0  0  0  0  0  0  0
  -33.4230  153.1310    5.3541 H   0  0  0  0  0  0  0  0  0  0  0  0
  -35.1618  153.2434    4.8583 H   0  0  0  0  0  0  0  0  0  0  0  0
  -37.6953  154.4017    6.5378 H   0  0  0  0  0  0  0  0  0  0  0  0
  -38.9361  155.6935    4.8072 H   0  0  0  0  0  0  0  0  0  0  0  0
  -38.4676  159.3628    1.3924 H   0  0  0  0  0  0  0  0  0  0  0  0
  -39.5560  161.8850   -0.0980 H   0  0  0  0  0  0  0  0  0  0  0  0
  -38.9475  158.4327   -3.9674 H   0  0  0  0  0  0  0  0  0  0  0  0
  -38.4922  160.4307   -5.3553 H   0  0  0  0  0  0  0  0  0  0  0  0
  -38.2701  162.1942   -6.3425 H   0  0  0  0  0  0  0  0  0  0  0  0
  -37.8734  164.4211   -7.4166 H   0  0  0  0  0  0  0  0  0  0  0  0
  -38.0192  166.4642   -6.0431 H   0  0  0  0  0  0  0  0  0  0  0  0
  -38.9577  164.2190   -2.6231 H   0  0  0  0  0  0  0  0  0  0  0  0
  1  2  1  0
  2  3  1  0
  3  4  2  0
  4  5  1  0
  5  6  1  0
  6  7  1  0
  7  8  2  0
  7  9  1  0
  9 10  1  0
 10 11  2  0
 11 12  1  0
 12 13  1  0
 13 14  1  0
 14 15  1  0
 15 16  1  0
 16 17  1  0
 17 18  1  0
 17 19  1  0
 19 20  1  0
 12 21  2  0
 21 22  1  0
  5 23  2  0
 23 24  1  0
 24 25  1  0
 25 26  1  0
 26 27  2  0
 27 28  1  0
 28 29  2  0
 29 30  1  0
 30 31  1  0
 31 32  1  0
 32 33  2  0
 33 34  1  0
 34 35  2  0
 35 36  1  0
 30 37  2  0
 24  2  2  0
 37 26  1  0
 22  9  2  0
 36 31  2  0
 20 14  1  0
  1 38  1  0
  1 39  1  0
  1 40  1  0
  3 41  1  0
  4 42  1  0
  6 43  1  0
 10 44  1  0
 11 45  1  0
 13 46  1  0
 13 47  1  0
 15 48  1  0
 15 49  1  0
 16 50  1  0
 16 51  1  0
 18 52  1  0
 18 53  1  0
 18 54  1  0
 19 55  1  0
 19 56  1  0
 20 57  1  0
 20 58  1  0
 21 59  1  0
 22 60  1  0
 23 61  1  0
 25 62  1  0
 28 63  1  0
 29 64  1  0
 32 65  1  0
 33 66  1  0
 34 67  1  0
 36 68  1  0
M  END
>  <meeko>  (1) 
{"is_sidechain": false}

>  <vina_affinity_kcal_mol>  (1) 
-12.343

>  <pose_rank>  (1) 
1

$$$$

     RDKit          3D

 68 72  0  0  0  0  0  0  0  0999 V2000
  -42.4150  160.6630   -0.3820 C   0  0  0  0  0  0  0  0  0  0  0  0
  -41.5140  159.8720    0.5290 C   0  0  0  0  0  0  0  0  0  0  0  0
  -42.0560  159.3620    1.7210 C   0  0  0  0  0  0  0  0  0  0  0  0
  -41.2770  158.6180    2.6070 C   0  0  0  0  0  0  0  0  0  0  0  0
  -39.9410  158.3690    2.3180 C   0  0  0  0  0  0  0  0  0  0  0  0
  -39.0810  157.6190    3.1480 N   0  0  0  0  0  0  0  0  0  0  0  0
  -37.7000  157.6790    3.2030 C   0  0  0  0  0  0  0  0  0  0  0  0
  -36.9620  158.3440    2.4860 O   0  0  0  0  0  0  0  0  0  0  0  0
  -37.0760  156.7930    4.2280 C   0  0  0  0  0  0  0  0  0  0  0  0
  -35.6840  156.7950    4.3530 C   0  0  0  0  0  0  0  0  0  0  0  0
  -35.0610  155.9800    5.3000 C   0  0  0  0  0  0  0  0  0  0  0  0
  -35.8200  155.1620    6.1520 C   0  0  0  0  0  0  0  0  0  0  0  0
  -35.1450  154.2780    7.1830 C   0  0  0  0  0  0  0  0  0  0  0  0
  -35.1320  152.8380    6.9200 N   0  0  0  0  0  0  0  0  0  0  0  0
  -36.3480  152.1080    7.3030 C   0  0  0  0  0  0  0  0  0  0  0  0
  -37.1250  151.4970    6.1140 C   0  0  0  0  0  0  0  0  0  0  0  0
  -36.3210  150.6220    5.2340 N   0  0  0  0  0  0  0  0  0  0  0  0
  -36.5270  149.2090    5.5350 C   0  0  0  0  0  0  0  0  0  0  0  0
  -34.8830  150.9630    5.2980 C   0  0  0  0  0  0  0  0  0  0  0  0
  -34.6400  152.4610    5.5880 C   0  0  0  0  0  0  0  0  0  0  0  0
  -37.2180  155.1720    6.0230 C   0  0  0  0  0  0  0  0  0  0  0  0
  -37.8450  155.9860    5.0750 C   0  0  0  0  0  0  0  0  0  0  0  0
  -39.3990  158.8760    1.1260 C   0  0  0  0  0  0  0  0  0  0  0  0
  -40.1560  159.6330    0.2170 C   0  0  0  0  0  0  0  0  0  0  0  0
  -39.6170  160.1320   -0.9790 N   0  0  0  0  0  0  0  0  0  0  0  0
  -39.2920  161.4000   -1.4550 C   0  0  0  0  0  0  0  0  0  0  0  0
  -39.1750  162.4620   -0.6490 N   0  0  0  0  0  0  0  0  0  0  0  0
  -38.8520  163.6340   -1.2200 C   0  0  0  0  0  0  0  0  0  0  0  0
  -38.6330  163.7890   -2.5650 C   0  0  0  0  0  0  0  0  0  0  0  0
  -38.7650  162.6530   -3.3350 C   0  0  0  0  0  0  0  0  0  0  0  0
  -38.5640  162.6420   -4.7950 C   0  0  0  0  0  0  0  0  0  0  0  0
  -38.4620  161.4630   -5.5480 C   0  0  0  0  0  0  0  0  0  0  0  0
  -38.2680  161.5160   -6.9300 C   0  0  0  0  0  0  0  0  0  0  0  0
  -38.1800  162.7560   -7.5350 C   0  0  0  0  0  0  0  0  0  0  0  0
  -38.2760  163.9180   -6.8640 N   0  0  0  0  0  0  0  0  0  0  0  0
  -38.4700  163.8330   -5.5220 C   0  0  0  0  0  0  0  0  0  0  0  0
  -39.1000  161.4640   -2.7840 N   0  0  0  0  0  0  0  0  0  0  0  0
  -43.1059  161.2696    0.2219 H   0  0  0  0  0  0  0  0  0  0  0  0
  -41.8061  161.3236   -1.0167 H   0  0  0  0  0  0  0  0  0  0  0  0
  -42.9912  159.9737   -1.0167 H   0  0  0  0  0  0  0  0  0  0  0  0
  -43.1128  159.5528    1.9594 H   0  0  0  0  0  0  0  0  0  0  0  0
  -41.7206  158.2282    3.5350 H   0  0  0  0  0  0  0  0  0  0  0  0
  -39.5350  156.9160    3.7170 H   0  0  0  0  0  0  0  0  0  0  0  0
  -35.0767  157.4415    3.7025 H   0  0  0  0  0  0  0  0  0  0  0  0
  -33.9639  155.9787    5.3794 H   0  0  0  0  0  0  0  0  0  0  0  0
  -34.0994  154.6086    7.2695 H   0  0  0  0  0  0  0  0  0  0  0  0
  -35.7466  154.3953    8.0964 H   0  0  0  0  0  0  0  0  0  0  0  0
  -36.0603  151.2920    7.9822 H   0  0  0  0  0  0  0  0  0  0  0  0
  -37.0195  152.8405    7.7747 H   0  0  0  0  0  0  0  0  0  0  0  0
  -37.9584  150.9036    6.5181 H   0  0  0  0  0  0  0  0  0  0  0  0
  -37.4564  152.3420    5.4926 H   0  0  0  0  0  0  0  0  0  0  0  0
  -36.5479  149.0656    6.6254 H   0  0  0  0  0  0  0  0  0  0  0  0
  -37.4829  148.8777    5.1032 H   0  0  0  0  0  0  0  0  0  0  0  0
  -35.7054  148.6186    5.1032 H   0  0  0  0  0  0  0  0  0  0  0  0
  -34.4153  150.3691    6.0971 H   0  0  0  0  0  0  0  0  0  0  0  0
  -34.4432  150.7383    4.3151 H   0  0  0  0  0  0  0  0  0  0  0  0
  -33.5604  152.6649    5.5348 H   0  0  0  0  0  0  0  0  0  0  0  0
  -35.1872  153.0510    4.8381 H   0  0  0  0  0  0  0  0  0  0  0  0
  -37.8280  154.5309    6.6764 H   0  0  0  0  0  0  0  0  0  0  0  0
  -38.9420  155.9924    4.9946 H   0  0  0  0  0  0  0  0  0  0  0  0
  -38.3427  158.6728    0.8957 H   0  0  0  0  0  0  0  0  0  0  0  0
  -39.4290  159.4650   -1.7110 H   0  0  0  0  0  0  0  0  0  0  0  0
  -38.7579  164.5186   -0.5730 H   0  0  0  0  0  0  0  0  0  0  0  0
  -38.3677  164.7623   -3.0035 H   0  0  0  0  0  0  0  0  0  0  0  0
  -38.5355  160.4874   -5.0452 H   0  0  0  0  0  0  0  0  0  0  0  0
  -38.1871  160.5931   -7.5231 H   0  0  0  0  0  0  0  0  0  0  0  0
  -38.0231  162.7945   -8.6231 H   0  0  0  0  0  0  0  0  0  0  0  0
  -38.5603  164.7759   -4.9628 H   0  0  0  0  0  0  0  0  0  0  0  0
  1  2  1  0
  2  3  1  0
  3  4  2  0
  4  5  1  0
  5  6  1  0
  6  7  1  0
  7  8  2  0
  7  9  1  0
  9 10  1  0
 10 11  2  0
 11 12  1  0
 12 13  1  0
 13 14  1  0
 14 15  1  0
 15 16  1  0
 16 17  1  0
 17 18  1  0
 17 19  1  0
 19 20  1  0
 12 21  2  0
 21 22  1  0
  5 23  2  0
 23 24  1  0
 24 25  1  0
 25 26  1  0
 26 27  2  0
 27 28  1  0
 28 29  2  0
 29 30  1  0
 30 31  1  0
 31 32  1  0
 32 33  2  0
 33 34  1  0
 34 35  2  0
 35 36  1  0
 30 37  2  0
 24  2  2  0
 37 26  1  0
 22  9  2  0
 36 31  2  0
 20 14  1  0
  1 38  1  0
  1 39  1  0
  1 40  1  0
  3 41  1  0
  4 42  1  0
  6 43  1  0
 10 44  1  0
 11 45  1  0
 13 46  1  0
 13 47  1  0
 15 48  1  0
 15 49  1  0
 16 50  1  0
 16 51  1  0
 18 52  1  0
 18 53  1  0
 18 54  1  0
 19 55  1  0
 19 56  1  0
 20 57  1  0
 20 58  1  0
 21 59  1  0
 22 60  1  0
 23 61  1  0
 25 62  1  0
 28 63  1  0
 29 64  1  0
 32 65  1  0
 33 66  1  0
 34 67  1  0
 36 68  1  0
M  END
>  <meeko>  (2) 
{"is_sidechain": false}

>  <vina_affinity_kcal_mol>  (2) 
-11.439

>  <pose_rank>  (2) 
2

$$$$

     RDKit          3D

 68 72  0  0  0  0  0  0  0  0999 V2000
  -41.4720  157.9520    3.2150 C   0  0  0  0  0  0  0  0  0  0  0  0
  -41.0470  158.6770    1.9640 C   0  0  0  0  0  0  0  0  0  0  0  0
  -41.9530  159.5770    1.3780 C   0  0  0  0  0  0  0  0  0  0  0  0
  -41.6210  160.2830    0.2220 C   0  0  0  0  0  0  0  0  0  0  0  0
  -40.3770  160.1020   -0.3700 C   0  0  0  0  0  0  0  0  0  0  0  0
  -39.9510  160.7790   -1.5330 N   0  0  0  0  0  0  0  0  0  0  0  0
  -39.3780  162.0360   -1.6140 C   0  0  0  0  0  0  0  0  0  0  0  0
  -39.2000  162.8250   -0.6940 O   0  0  0  0  0  0  0  0  0  0  0  0
  -38.9850  162.4560   -2.9900 C   0  0  0  0  0  0  0  0  0  0  0  0
  -38.9440  161.4870   -3.9960 C   0  0  0  0  0  0  0  0  0  0  0  0
  -38.5800  161.8390   -5.2980 C   0  0  0  0  0  0  0  0  0  0  0  0
  -38.2700  163.1700   -5.6200 C   0  0  0  0  0  0  0  0  0  0  0  0
  -37.8790  163.5540   -7.0340 C   0  0  0  0  0  0  0  0  0  0  0  0
  -37.9050  162.4950   -8.0440 N   0  0  0  0  0  0  0  0  0  0  0  0
  -38.4260  162.8830   -9.3620 C   0  0  0  0  0  0  0  0  0  0  0  0
  -37.3830  162.8280  -10.5020 C   0  0  0  0  0  0  0  0  0  0  0  0
  -36.6920  161.5280  -10.6440 N   0  0  0  0  0  0  0  0  0  0  0  0
  -37.2660  160.7200  -11.7150 C   0  0  0  0  0  0  0  0  0  0  0  0
  -36.6840  160.7750   -9.3720 C   0  0  0  0  0  0  0  0  0  0  0  0
  -36.6720  161.7000   -8.1340 C   0  0  0  0  0  0  0  0  0  0  0  0
  -38.3220  164.1360   -4.6040 C   0  0  0  0  0  0  0  0  0  0  0  0
  -38.6850  163.7880   -3.2990 C   0  0  0  0  0  0  0  0  0  0  0  0
  -39.4700  159.2050    0.2160 C   0  0  0  0  0  0  0  0  0  0  0  0
  -39.7780  158.4760    1.3770 C   0  0  0  0  0  0  0  0  0  0  0  0
  -38.8680  157.5850    1.9690 N   0  0  0  0  0  0  0  0  0  0  0  0
  -38.1380  157.5720    3.1540 C   0  0  0  0  0  0  0  0  0  0  0  0
  -37.6720  158.6900    3.7240 N   0  0  0  0  0  0  0  0  0  0  0  0
  -36.9860  158.5560    4.8710 C   0  0  0  0  0  0  0  0  0  0  0  0
  -36.7500  157.3490    5.4780 C   0  0  0  0  0  0  0  0  0  0  0  0
  -37.2630  156.2390    4.8400 C   0  0  0  0  0  0  0  0  0  0  0  0
  -37.1020  154.8680    5.3550 C   0  0  0  0  0  0  0  0  0  0  0  0
  -36.3830  154.5650    6.5220 C   0  0  0  0  0  0  0  0  0  0  0  0
  -36.2620  153.2450    6.9590 C   0  0  0  0  0  0  0  0  0  0  0  0
  -36.8670  152.2470    6.2180 C   0  0  0  0  0  0  0  0  0  0  0  0
  -37.5720  152.4800    5.0950 N   0  0  0  0  0  0  0  0  0  0  0  0
  -37.6760  153.7750    4.6990 C   0  0  0  0  0  0  0  0  0  0  0  0
  -37.9480  156.3490    3.6790 N   0  0  0  0  0  0  0  0  0  0  0  0
  -41.1400  158.5183    4.0977 H   0  0  0  0  0  0  0  0  0  0  0  0
  -42.5679  157.8585    3.2302 H   0  0  0  0  0  0  0  0  0  0  0  0
  -41.0183  156.9501    3.2302 H   0  0  0  0  0  0  0  0  0  0  0  0
  -42.9405  159.7272    1.8387 H   0  0  0  0  0  0  0  0  0  0  0  0
  -42.3442  160.9834   -0.2213 H   0  0  0  0  0  0  0  0  0  0  0  0
  -40.1530  160.3070   -2.4050 H   0  0  0  0  0  0  0  0  0  0  0  0
  -39.1993  160.4430   -3.7618 H   0  0  0  0  0  0  0  0  0  0  0  0
  -38.5358  161.0655   -6.0789 H   0  0  0  0  0  0  0  0  0  0  0  0
  -38.5682  164.3447   -7.3652 H   0  0  0  0  0  0  0  0  0  0  0  0
  -36.8234  163.8558   -6.9653 H   0  0  0  0  0  0  0  0  0  0  0  0
  -39.2526  162.2041   -9.6188 H   0  0  0  0  0  0  0  0  0  0  0  0
  -38.7440  163.9326   -9.2775 H   0  0  0  0  0  0  0  0  0  0  0  0
  -37.8981  163.0477  -11.4488 H   0  0  0  0  0  0  0  0  0  0  0  0
  -36.6077  163.5666  -10.2502 H   0  0  0  0  0  0  0  0  0  0  0  0
  -37.8510  159.8964  -11.2797 H   0  0  0  0  0  0  0  0  0  0  0  0
  -37.9220  161.3474  -12.3363 H   0  0  0  0  0  0  0  0  0  0  0  0
  -36.4576  160.3071  -12.3363 H   0  0  0  0  0  0  0  0  0  0  0  0
  -37.5835  160.1431   -9.3310 H   0  0  0  0  0  0  0  0  0  0  0  0
  -35.7638  160.1729   -9.3470 H   0  0  0  0  0  0  0  0  0  0  0  0
  -36.5772  161.0834   -7.2280 H   0  0  0  0  0  0  0  0  0  0  0  0
  -35.8215  162.3913   -8.2278 H   0  0  0  0  0  0  0  0  0  0  0  0
  -38.0737  165.1820   -4.8371 H   0  0  0  0  0  0  0  0  0  0  0  0
  -38.7347  164.5597   -2.5167 H   0  0  0  0  0  0  0  0  0  0  0  0
  -38.4832  159.0680   -0.2503 H   0  0  0  0  0  0  0  0  0  0  0  0
  -38.6270  156.7590    1.4430 H   0  0  0  0  0  0  0  0  0  0  0  0
  -36.5917  159.4644    5.3499 H   0  0  0  0  0  0  0  0  0  0  0  0
  -36.1848  157.2708    6.4184 H   0  0  0  0  0  0  0  0  0  0  0  0
  -35.9108  155.3751    7.0971 H   0  0  0  0  0  0  0  0  0  0  0  0
  -35.6981  153.0043    7.8722 H   0  0  0  0  0  0  0  0  0  0  0  0
  -36.7671  151.2077    6.5642 H   0  0  0  0  0  0  0  0  0  0  0  0
  -38.2587  153.9803    3.7889 H   0  0  0  0  0  0  0  0  0  0  0  0
  1  2  1  0
  2  3  1  0
  3  4  2  0
  4  5  1  0
  5  6  1  0
  6  7  1  0
  7  8  2  0
  7  9  1  0
  9 10  1  0
 10 11  2  0
 11 12  1  0
 12 13  1  0
 13 14  1  0
 14 15  1  0
 15 16  1  0
 16 17  1  0
 17 18  1  0
 17 19  1  0
 19 20  1  0
 12 21  2  0
 21 22  1  0
  5 23  2  0
 23 24  1  0
 24 25  1  0
 25 26  1  0
 26 27  2  0
 27 28  1  0
 28 29  2  0
 29 30  1  0
 30 31  1  0
 31 32  1  0
 32 33  2  0
 33 34  1  0
 34 35  2  0
 35 36  1  0
 30 37  2  0
 24  2  2  0
 37 26  1  0
 22  9  2  0
 36 31  2  0
 20 14  1  0
  1 38  1  0
  1 39  1  0
  1 40  1  0
  3 41  1  0
  4 42  1  0
  6 43  1  0
 10 44  1  0
 11 45  1  0
 13 46  1  0
 13 47  1  0
 15 48  1  0
 15 49  1  0
 16 50  1  0
 16 51  1  0
 18 52  1  0
 18 53  1  0
 18 54  1  0
 19 55  1  0
 19 56  1  0
 20 57  1  0
 20 58  1  0
 21 59  1  0
 22 60  1  0
 23 61  1  0
 25 62  1  0
 28 63  1  0
 29 64  1  0
 32 65  1  0
 33 66  1  0
 34 67  1  0
 36 68  1  0
M  END
>  <meeko>  (3) 
{"is_sidechain": false}

>  <vina_affinity_kcal_mol>  (3) 
-11.402

>  <pose_rank>  (3) 
3

$$$$

     RDKit          3D

 68 72  0  0  0  0  0  0  0  0999 V2000
  -38.9330  165.1210   -4.0780 C   0  0  0  0  0  0  0  0  0  0  0  0
  -38.6020  164.0600   -5.0950 C   0  0  0  0  0  0  0  0  0  0  0  0
  -38.2290  164.4710   -6.3850 C   0  0  0  0  0  0  0  0  0  0  0  0
  -37.9060  163.5390   -7.3730 C   0  0  0  0  0  0  0  0  0  0  0  0
  -37.9510  162.1800   -7.0870 C   0  0  0  0  0  0  0  0  0  0  0  0
  -37.6330  161.1680   -8.0180 N   0  0  0  0  0  0  0  0  0  0  0  0
  -36.9450  161.3070   -9.2110 C   0  0  0  0  0  0  0  0  0  0  0  0
  -36.5480  162.3500   -9.7150 O   0  0  0  0  0  0  0  0  0  0  0  0
  -36.7190  160.0330   -9.9530 C   0  0  0  0  0  0  0  0  0  0  0  0
  -36.4820  158.8670   -9.2190 C   0  0  0  0  0  0  0  0  0  0  0  0
  -36.2650  157.6540   -9.8770 C   0  0  0  0  0  0  0  0  0  0  0  0
  -36.2990  157.5810  -11.2780 C   0  0  0  0  0  0  0  0  0  0  0  0
  -36.0670  156.2650  -11.9930 C   0  0  0  0  0  0  0  0  0  0  0  0
  -34.6810  155.8100  -12.1180 N   0  0  0  0  0  0  0  0  0  0  0  0
  -33.6520  156.8420  -11.9320 C   0  0  0  0  0  0  0  0  0  0  0  0
  -32.7550  156.6320  -10.6900 C   0  0  0  0  0  0  0  0  0  0  0  0
  -32.0990  155.3090  -10.6190 N   0  0  0  0  0  0  0  0  0  0  0  0
  -30.7130  155.3620  -11.0740 C   0  0  0  0  0  0  0  0  0  0  0  0
  -32.8540  154.2870  -11.3750 C   0  0  0  0  0  0  0  0  0  0  0  0
  -34.3740  154.5670  -11.3980 C   0  0  0  0  0  0  0  0  0  0  0  0
  -36.5450  158.7570  -12.0050 C   0  0  0  0  0  0  0  0  0  0  0  0
  -36.7620  159.9740  -11.3510 C   0  0  0  0  0  0  0  0  0  0  0  0
  -38.3220  161.7690   -5.7970 C   0  0  0  0  0  0  0  0  0  0  0  0
  -38.6580  162.6830   -4.7840 C   0  0  0  0  0  0  0  0  0  0  0  0
  -39.0200  162.2720   -3.4910 N   0  0  0  0  0  0  0  0  0  0  0  0
  -38.9880  161.0640   -2.8000 C   0  0  0  0  0  0  0  0  0  0  0  0
  -38.1540  160.0700   -3.1290 N   0  0  0  0  0  0  0  0  0  0  0  0
  -38.2070  158.9520   -2.3880 C   0  0  0  0  0  0  0  0  0  0  0  0
  -39.0570  158.7860   -1.3240 C   0  0  0  0  0  0  0  0  0  0  0  0
  -39.8850  159.8520   -1.0370 C   0  0  0  0  0  0  0  0  0  0  0  0
  -40.8560  159.8410    0.0700 C   0  0  0  0  0  0  0  0  0  0  0  0
  -40.6700  159.1020    1.2490 C   0  0  0  0  0  0  0  0  0  0  0  0
  -41.6280  159.1280    2.2630 C   0  0  0  0  0  0  0  0  0  0  0  0
  -42.7610  159.9000    2.0800 C   0  0  0  0  0  0  0  0  0  0  0  0
  -42.9890  160.6320    0.9740 N   0  0  0  0  0  0  0  0  0  0  0  0
  -42.0350  160.5890    0.0070 C   0  0  0  0  0  0  0  0  0  0  0  0
  -39.8550  160.9830   -1.7770 N   0  0  0  0  0  0  0  0  0  0  0  0
  -38.8051  164.7109   -3.0654 H   0  0  0  0  0  0  0  0  0  0  0  0
  -38.2604  165.9809   -4.2130 H   0  0  0  0  0  0  0  0  0  0  0  0
  -39.9752  165.4459   -4.2130 H   0  0  0  0  0  0  0  0  0  0  0  0
  -38.1907  165.5447   -6.6208 H   0  0  0  0  0  0  0  0  0  0  0  0
  -37.6159  163.8805   -8.3776 H   0  0  0  0  0  0  0  0  0  0  0  0
  -38.0130  160.2540   -7.8080 H   0  0  0  0  0  0  0  0  0  0  0  0
  -36.4663  158.9049   -8.1198 H   0  0  0  0  0  0  0  0  0  0  0  0
  -36.0651  156.7454   -9.2901 H   0  0  0  0  0  0  0  0  0  0  0  0
  -36.6228  155.4886  -11.4470 H   0  0  0  0  0  0  0  0  0  0  0  0
  -36.4042  156.4385  -13.0256 H   0  0  0  0  0  0  0  0  0  0  0  0
  -33.0083  156.8509  -12.8239 H   0  0  0  0  0  0  0  0  0  0  0  0
  -34.1842  157.7923  -11.7783 H   0  0  0  0  0  0  0  0  0  0  0  0
  -31.9708  157.4034  -10.6992 H   0  0  0  0  0  0  0  0  0  0  0  0
  -33.4167  156.6984   -9.8138 H   0  0  0  0  0  0  0  0  0  0  0  0
  -30.0418  155.3877  -10.2029 H   0  0  0  0  0  0  0  0  0  0  0  0
  -30.4920  154.4716  -11.6810 H   0  0  0  0  0  0  0  0  0  0  0  0
  -30.5607  156.2666  -11.6810 H   0  0  0  0  0  0  0  0  0  0  0  0
  -32.4833  154.2694  -12.4105 H   0  0  0  0  0  0  0  0  0  0  0  0
  -32.7008  153.3204  -10.8728 H   0  0  0  0  0  0  0  0  0  0  0  0
  -34.8843  153.7297  -11.8965 H   0  0  0  0  0  0  0  0  0  0  0  0
  -34.7211  154.6745  -10.3598 H   0  0  0  0  0  0  0  0  0  0  0  0
  -36.5673  158.7205  -13.1042 H   0  0  0  0  0  0  0  0  0  0  0  0
  -36.9662  160.8839  -11.9345 H   0  0  0  0  0  0  0  0  0  0  0  0
  -38.3507  160.6928   -5.5711 H   0  0  0  0  0  0  0  0  0  0  0  0
  -39.4330  162.9680   -2.8880 H   0  0  0  0  0  0  0  0  0  0  0  0
  -37.5319  158.1234   -2.6482 H   0  0  0  0  0  0  0  0  0  0  0  0
  -39.0773  157.8577   -0.7343 H   0  0  0  0  0  0  0  0  0  0  0  0
  -39.7602  158.4966    1.3746 H   0  0  0  0  0  0  0  0  0  0  0  0
  -41.4855  158.5479    3.1867 H   0  0  0  0  0  0  0  0  0  0  0  0
  -43.5153  159.9165    2.8805 H   0  0  0  0  0  0  0  0  0  0  0  0
  -42.2043  161.1912   -0.8978 H   0  0  0  0  0  0  0  0  0  0  0  0
  1  2  1  0
  2  3  1  0
  3  4  2  0
  4  5  1  0
  5  6  1  0
  6  7  1  0
  7  8  2  0
  7  9  1  0
  9 10  1  0
 10 11  2  0
 11 12  1  0
 12 13  1  0
 13 14  1  0
 14 15  1  0
 15 16  1  0
 16 17  1  0
 17 18  1  0
 17 19  1  0
 19 20  1  0
 12 21  2  0
 21 22  1  0
  5 23  2  0
 23 24  1  0
 24 25  1  0
 25 26  1  0
 26 27  2  0
 27 28  1  0
 28 29  2  0
 29 30  1  0
 30 31  1  0
 31 32  1  0
 32 33  2  0
 33 34  1  0
 34 35  2  0
 35 36  1  0
 30 37  2  0
 24  2  2  0
 37 26  1  0
 22  9  2  0
 36 31  2  0
 20 14  1  0
  1 38  1  0
  1 39  1  0
  1 40  1  0
  3 41  1  0
  4 42  1  0
  6 43  1  0
 10 44  1  0
 11 45  1  0
 13 46  1  0
 13 47  1  0
 15 48  1  0
 15 49  1  0
 16 50  1  0
 16 51  1  0
 18 52  1  0
 18 53  1  0
 18 54  1  0
 19 55  1  0
 19 56  1  0
 20 57  1  0
 20 58  1  0
 21 59  1  0
 22 60  1  0
 23 61  1  0
 25 62  1  0
 28 63  1  0
 29 64  1  0
 32 65  1  0
 33 66  1  0
 34 67  1  0
 36 68  1  0
M  END
>  <meeko>  (4) 
{"is_sidechain": false}

>  <vina_affinity_kcal_mol>  (4) 
-10.863

>  <pose_rank>  (4) 
4

$$$$

     RDKit          3D

 68 72  0  0  0  0  0  0  0  0999 V2000
  -36.3290  156.0980    7.5610 C   0  0  0  0  0  0  0  0  0  0  0  0
  -36.6880  156.5760    6.1780 C   0  0  0  0  0  0  0  0  0  0  0  0
  -36.2290  157.8400    5.7730 C   0  0  0  0  0  0  0  0  0  0  0  0
  -36.5230  158.3410    4.5040 C   0  0  0  0  0  0  0  0  0  0  0  0
  -37.2800  157.5860    3.6180 C   0  0  0  0  0  0  0  0  0  0  0  0
  -37.6180  158.0050    2.3130 N   0  0  0  0  0  0  0  0  0  0  0  0
  -38.8570  158.4150    1.8530 C   0  0  0  0  0  0  0  0  0  0  0  0
  -39.9100  158.4190    2.4800 O   0  0  0  0  0  0  0  0  0  0  0  0
  -38.8820  158.8500    0.4270 C   0  0  0  0  0  0  0  0  0  0  0  0
  -39.2160  160.1770    0.1420 C   0  0  0  0  0  0  0  0  0  0  0  0
  -39.2520  160.6250   -1.1810 C   0  0  0  0  0  0  0  0  0  0  0  0
  -38.9360  159.7590   -2.2400 C   0  0  0  0  0  0  0  0  0  0  0  0
  -38.9710  160.2440   -3.6760 C   0  0  0  0  0  0  0  0  0  0  0  0
  -38.4150  161.5720   -3.9440 N   0  0  0  0  0  0  0  0  0  0  0  0
  -37.6650  161.7070   -5.2000 C   0  0  0  0  0  0  0  0  0  0  0  0
  -38.3130  162.6620   -6.2300 C   0  0  0  0  0  0  0  0  0  0  0  0
  -38.6030  164.0180   -5.7170 N   0  0  0  0  0  0  0  0  0  0  0  0
  -37.5810  164.9810   -6.1150 C   0  0  0  0  0  0  0  0  0  0  0  0
  -38.7730  164.0190   -4.2490 C   0  0  0  0  0  0  0  0  0  0  0  0
  -39.3450  162.6860   -3.7160 C   0  0  0  0  0  0  0  0  0  0  0  0
  -38.5960  158.4300   -1.9410 C   0  0  0  0  0  0  0  0  0  0  0  0
  -38.5590  157.9780   -0.6190 C   0  0  0  0  0  0  0  0  0  0  0  0
  -37.7370  156.3210    4.0210 C   0  0  0  0  0  0  0  0  0  0  0  0
  -37.4620  155.7920    5.2930 C   0  0  0  0  0  0  0  0  0  0  0  0
  -37.9110  154.5240    5.6940 N   0  0  0  0  0  0  0  0  0  0  0  0
  -37.4070  153.2300    5.5980 C   0  0  0  0  0  0  0  0  0  0  0  0
  -36.1510  152.9200    5.9400 N   0  0  0  0  0  0  0  0  0  0  0  0
  -35.7760  151.6370    5.8110 C   0  0  0  0  0  0  0  0  0  0  0  0
  -36.6100  150.6450    5.3590 C   0  0  0  0  0  0  0  0  0  0  0  0
  -37.8910  151.0330    5.0300 C   0  0  0  0  0  0  0  0  0  0  0  0
  -38.9120  150.0960    4.5300 C   0  0  0  0  0  0  0  0  0  0  0  0
  -40.1910  150.5000    4.1160 C   0  0  0  0  0  0  0  0  0  0  0  0
  -41.1180  149.5650    3.6550 C   0  0  0  0  0  0  0  0  0  0  0  0
  -40.7470  148.2330    3.6160 C   0  0  0  0  0  0  0  0  0  0  0  0
  -39.5350  147.7900    3.9950 N   0  0  0  0  0  0  0  0  0  0  0  0
  -38.6530  148.7250    4.4340 C   0  0  0  0  0  0  0  0  0  0  0  0
  -38.2870  152.3210    5.1420 N   0  0  0  0  0  0  0  0  0  0  0  0
  -36.8133  156.7429    8.3091 H   0  0  0  0  0  0  0  0  0  0  0  0
  -36.6739  155.0617    7.6918 H   0  0  0  0  0  0  0  0  0  0  0  0
  -35.2376  156.1405    7.6918 H   0  0  0  0  0  0  0  0  0  0  0  0
  -35.6278  158.4452    6.4675 H   0  0  0  0  0  0  0  0  0  0  0  0
  -36.1551  159.3338    4.2057 H   0  0  0  0  0  0  0  0  0  0  0  0
  -36.8740  157.9310    1.6300 H   0  0  0  0  0  0  0  0  0  0  0  0
  -39.4514  160.8711    0.9622 H   0  0  0  0  0  0  0  0  0  0  0  0
  -39.5309  161.6673   -1.3951 H   0  0  0  0  0  0  0  0  0  0  0  0
  -38.4088  159.5202   -4.2843 H   0  0  0  0  0  0  0  0  0  0  0  0
  -40.0397  160.3271   -3.9230 H   0  0  0  0  0  0  0  0  0  0  0  0
  -36.6606  162.0874   -4.9621 H   0  0  0  0  0  0  0  0  0  0  0  0
  -37.6463  160.7098   -5.6639 H   0  0  0  0  0  0  0  0  0  0  0  0
  -37.6288  162.7584   -7.0859 H   0  0  0  0  0  0  0  0  0  0  0  0
  -39.2824  162.2175   -6.4994 H   0  0  0  0  0  0  0  0  0  0  0  0
  -37.1184  165.4169   -5.2172 H   0  0  0  0  0  0  0  0  0  0  0  0
  -36.8112  164.4723   -6.7139 H   0  0  0  0  0  0  0  0  0  0  0  0
  -38.0431  165.7796   -6.7139 H   0  0  0  0  0  0  0  0  0  0  0  0
  -37.7930  164.1940   -3.7810 H   0  0  0  0  0  0  0  0  0  0  0  0
  -39.4906  164.8138   -3.9973 H   0  0  0  0  0  0  0  0  0  0  0  0
  -39.5293  162.7825   -2.6358 H   0  0  0  0  0  0  0  0  0  0  0  0
  -40.2796  162.4713   -4.2549 H   0  0  0  0  0  0  0  0  0  0  0  0
  -38.3554  157.7347   -2.7587 H   0  0  0  0  0  0  0  0  0  0  0  0
  -38.2762  156.9376   -0.4008 H   0  0  0  0  0  0  0  0  0  0  0  0
  -38.3318  155.7226    3.3152 H   0  0  0  0  0  0  0  0  0  0  0  0
  -38.8180  154.4760    6.1320 H   0  0  0  0  0  0  0  0  0  0  0  0
  -34.7449  151.3665    6.0822 H   0  0  0  0  0  0  0  0  0  0  0  0
  -36.2756  149.6013    5.2648 H   0  0  0  0  0  0  0  0  0  0  0  0
  -40.4651  151.5646    4.1555 H   0  0  0  0  0  0  0  0  0  0  0  0
  -42.1207  149.8797    3.3301 H   0  0  0  0  0  0  0  0  0  0  0  0
  -41.4817  147.4976    3.2562 H   0  0  0  0  0  0  0  0  0  0  0  0
  -37.6552  148.3760    4.7384 H   0  0  0  0  0  0  0  0  0  0  0  0
  1  2  1  0
  2  3  1  0
  3  4  2  0
  4  5  1  0
  5  6  1  0
  6  7  1  0
  7  8  2  0
  7  9  1  0
  9 10  1  0
 10 11  2  0
 11 12  1  0
 12 13  1  0
 13 14  1  0
 14 15  1  0
 15 16  1  0
 16 17  1  0
 17 18  1  0
 17 19  1  0
 19 20  1  0
 12 21  2  0
 21 22  1  0
  5 23  2  0
 23 24  1  0
 24 25  1  0
 25 26  1  0
 26 27  2  0
 27 28  1  0
 28 29  2  0
 29 30  1  0
 30 31  1  0
 31 32  1  0
 32 33  2  0
 33 34  1  0
 34 35  2  0
 35 36  1  0
 30 37  2  0
 24  2  2  0
 37 26  1  0
 22  9  2  0
 36 31  2  0
 20 14  1  0
  1 38  1  0
  1 39  1  0
  1 40  1  0
  3 41  1  0
  4 42  1  0
  6 43  1  0
 10 44  1  0
 11 45  1  0
 13 46  1  0
 13 47  1  0
 15 48  1  0
 15 49  1  0
 16 50  1  0
 16 51  1  0
 18 52  1  0
 18 53  1  0
 18 54  1  0
 19 55  1  0
 19 56  1  0
 20 57  1  0
 20 58  1  0
 21 59  1  0
 22 60  1  0
 23 61  1  0
 25 62  1  0
 28 63  1  0
 29 64  1  0
 32 65  1  0
 33 66  1  0
 34 67  1  0
 36 68  1  0
M  END
>  <meeko>  (5) 
{"is_sidechain": false}

>  <vina_affinity_kcal_mol>  (5) 
-10.81

>  <pose_rank>  (5) 
5

$$$$

     RDKit          3D

 68 72  0  0  0  0  0  0  0  0999 V2000
  -36.4630  155.9510    7.4950 C   0  0  0  0  0  0  0  0  0  0  0  0
  -36.8320  156.4660    6.1280 C   0  0  0  0  0  0  0  0  0  0  0  0
  -36.8080  157.8540    5.9130 C   0  0  0  0  0  0  0  0  0  0  0  0
  -37.1340  158.3970    4.6690 C   0  0  0  0  0  0  0  0  0  0  0  0
  -37.4900  157.5600    3.6190 C   0  0  0  0  0  0  0  0  0  0  0  0
  -37.8250  158.0170    2.3260 N   0  0  0  0  0  0  0  0  0  0  0  0
  -39.0880  158.2890    1.8290 C   0  0  0  0  0  0  0  0  0  0  0  0
  -40.1570  158.1120    2.4000 O   0  0  0  0  0  0  0  0  0  0  0  0
  -39.1110  158.8110    0.4330 C   0  0  0  0  0  0  0  0  0  0  0  0
  -38.4740  158.0690   -0.5670 C   0  0  0  0  0  0  0  0  0  0  0  0
  -38.4730  158.5240   -1.8870 C   0  0  0  0  0  0  0  0  0  0  0  0
  -39.1230  159.7180   -2.2350 C   0  0  0  0  0  0  0  0  0  0  0  0
  -39.1250  160.2110   -3.6690 C   0  0  0  0  0  0  0  0  0  0  0  0
  -38.5150  161.5180   -3.9250 N   0  0  0  0  0  0  0  0  0  0  0  0
  -37.7810  161.6420   -5.1910 C   0  0  0  0  0  0  0  0  0  0  0  0
  -38.4030  162.6410   -6.1940 C   0  0  0  0  0  0  0  0  0  0  0  0
  -38.6240  164.0000   -5.6540 N   0  0  0  0  0  0  0  0  0  0  0  0
  -37.5670  164.9240   -6.0540 C   0  0  0  0  0  0  0  0  0  0  0  0
  -38.7700  163.9830   -4.1830 C   0  0  0  0  0  0  0  0  0  0  0  0
  -39.3910  162.6680   -3.6630 C   0  0  0  0  0  0  0  0  0  0  0  0
  -39.7650  160.4520   -1.2250 C   0  0  0  0  0  0  0  0  0  0  0  0
  -39.7690  160.0000    0.0980 C   0  0  0  0  0  0  0  0  0  0  0  0
  -37.5120  156.1730    3.8320 C   0  0  0  0  0  0  0  0  0  0  0  0
  -37.1930  155.5980    5.0740 C   0  0  0  0  0  0  0  0  0  0  0  0
  -37.2060  154.2100    5.2860 N   0  0  0  0  0  0  0  0  0  0  0  0
  -36.2320  153.2460    5.5330 C   0  0  0  0  0  0  0  0  0  0  0  0
  -34.9430  153.4310    5.2230 N   0  0  0  0  0  0  0  0  0  0  0  0
  -34.0910  152.4340    5.5130 C   0  0  0  0  0  0  0  0  0  0  0  0
  -34.4740  151.2590    6.1080 C   0  0  0  0  0  0  0  0  0  0  0  0
  -35.8150  151.1370    6.4040 C   0  0  0  0  0  0  0  0  0  0  0  0
  -36.3930  149.9420    7.0430 C   0  0  0  0  0  0  0  0  0  0  0  0
  -35.8000  149.2920    8.1370 C   0  0  0  0  0  0  0  0  0  0  0  0
  -36.3930  148.1600    8.6980 C   0  0  0  0  0  0  0  0  0  0  0  0
  -37.5760  147.6970    8.1530 C   0  0  0  0  0  0  0  0  0  0  0  0
  -38.1910  148.2830    7.1090 N   0  0  0  0  0  0  0  0  0  0  0  0
  -37.5920  149.3850    6.5880 C   0  0  0  0  0  0  0  0  0  0  0  0
  -36.6920  152.1240    6.1110 N   0  0  0  0  0  0  0  0  0  0  0  0
  -36.9212  156.5906    8.2638 H   0  0  0  0  0  0  0  0  0  0  0  0
  -36.8293  154.9201    7.6096 H   0  0  0  0  0  0  0  0  0  0  0  0
  -35.3691  155.9663    7.6096 H   0  0  0  0  0  0  0  0  0  0  0  0
  -36.5276  158.5243    6.7389 H   0  0  0  0  0  0  0  0  0  0  0  0
  -37.1090  159.4866    4.5203 H   0  0  0  0  0  0  0  0  0  0  0  0
  -37.0500  158.0880    1.6790 H   0  0  0  0  0  0  0  0  0  0  0  0
  -37.9721  157.1238   -0.3126 H   0  0  0  0  0  0  0  0  0  0  0  0
  -37.9568  157.9398   -2.6631 H   0  0  0  0  0  0  0  0  0  0  0  0
  -38.5855  159.4687   -4.2756 H   0  0  0  0  0  0  0  0  0  0  0  0
  -40.1872  160.3369   -3.9257 H   0  0  0  0  0  0  0  0  0  0  0  0
  -36.7573  161.9745   -4.9642 H   0  0  0  0  0  0  0  0  0  0  0  0
  -37.8138  160.6530   -5.6714 H   0  0  0  0  0  0  0  0  0  0  0  0
  -37.7296  162.7215   -7.0601 H   0  0  0  0  0  0  0  0  0  0  0  0
  -39.3954  162.2441   -6.4538 H   0  0  0  0  0  0  0  0  0  0  0  0
  -37.0876  165.3431   -5.1571 H   0  0  0  0  0  0  0  0  0  0  0  0
  -36.8174  164.3864   -6.6532 H   0  0  0  0  0  0  0  0  0  0  0  0
  -37.9996  165.7388   -6.6532 H   0  0  0  0  0  0  0  0  0  0  0  0
  -37.7758  164.1069   -3.7288 H   0  0  0  0  0  0  0  0  0  0  0  0
  -39.4477  164.8039   -3.9059 H   0  0  0  0  0  0  0  0  0  0  0  0
  -39.5533  162.7538   -2.5784 H   0  0  0  0  0  0  0  0  0  0  0  0
  -40.3426  162.5039   -4.1898 H   0  0  0  0  0  0  0  0  0  0  0  0
  -40.2715  161.3951   -1.4779 H   0  0  0  0  0  0  0  0  0  0  0  0
  -40.2892  160.5787    0.8755 H   0  0  0  0  0  0  0  0  0  0  0  0
  -37.7888  155.5125    2.9971 H   0  0  0  0  0  0  0  0  0  0  0  0
  -38.0990  153.7450    5.2270 H   0  0  0  0  0  0  0  0  0  0  0  0
  -33.0289  152.5670    5.2597 H   0  0  0  0  0  0  0  0  0  0  0  0
  -33.7529  150.4602    6.3358 H   0  0  0  0  0  0  0  0  0  0  0  0
  -34.8592  149.6785    8.5559 H   0  0  0  0  0  0  0  0  0  0  0  0
  -35.9296  147.6480    9.5542 H   0  0  0  0  0  0  0  0  0  0  0  0
  -38.0390  146.8028    8.5957 H   0  0  0  0  0  0  0  0  0  0  0  0
  -38.0899  149.8787    5.7404 H   0  0  0  0  0  0  0  0  0  0  0  0
  1  2  1  0
  2  3  1  0
  3  4  2  0
  4  5  1  0
  5  6  1  0
  6  7  1  0
  7  8  2  0
  7  9  1  0
  9 10  1  0
 10 11  2  0
 11 12  1  0
 12 13  1  0
 13 14  1  0
 14 15  1  0
 15 16  1  0
 16 17  1  0
 17 18  1  0
 17 19  1  0
 19 20  1  0
 12 21  2  0
 21 22  1  0
  5 23  2  0
 23 24  1  0
 24 25  1  0
 25 26  1  0
 26 27  2  0
 27 28  1  0
 28 29  2  0
 29 30  1  0
 30 31  1  0
 31 32  1  0
 32 33  2  0
 33 34  1  0
 34 35  2  0
 35 36  1  0
 30 37  2  0
 24  2  2  0
 37 26  1  0
 22  9  2  0
 36 31  2  0
 20 14  1  0
  1 38  1  0
  1 39  1  0
  1 40  1  0
  3 41  1  0
  4 42  1  0
  6 43  1  0
 10 44  1  0
 11 45  1  0
 13 46  1  0
 13 47  1  0
 15 48  1  0
 15 49  1  0
 16 50  1  0
 16 51  1  0
 18 52  1  0
 18 53  1  0
 18 54  1  0
 19 55  1  0
 19 56  1  0
 20 57  1  0
 20 58  1  0
 21 59  1  0
 22 60  1  0
 23 61  1  0
 25 62  1  0
 28 63  1  0
 29 64  1  0
 32 65  1  0
 33 66  1  0
 34 67  1  0
 36 68  1  0
M  END
>  <meeko>  (6) 
{"is_sidechain": false}

>  <vina_affinity_kcal_mol>  (6) 
-10.74

>  <pose_rank>  (6) 
6

$$$$

     RDKit          3D

 68 72  0  0  0  0  0  0  0  0999 V2000
  -41.1040  158.1380    3.1900 C   0  0  0  0  0  0  0  0  0  0  0  0
  -40.7200  158.7020    1.8470 C   0  0  0  0  0  0  0  0  0  0  0  0
  -41.6090  159.5930    1.2220 C   0  0  0  0  0  0  0  0  0  0  0  0
  -41.3110  160.1550   -0.0200 C   0  0  0  0  0  0  0  0  0  0  0  0
  -40.1200  159.8360   -0.6590 C   0  0  0  0  0  0  0  0  0  0  0  0
  -39.7300  160.3620   -1.9100 N   0  0  0  0  0  0  0  0  0  0  0  0
  -39.2530  161.6330   -2.1780 C   0  0  0  0  0  0  0  0  0  0  0  0
  -39.1470  162.5620   -1.3860 O   0  0  0  0  0  0  0  0  0  0  0  0
  -38.8750  161.8720   -3.6000 C   0  0  0  0  0  0  0  0  0  0  0  0
  -39.1850  160.8900   -4.5460 C   0  0  0  0  0  0  0  0  0  0  0  0
  -38.8470  161.0750   -5.8890 C   0  0  0  0  0  0  0  0  0  0  0  0
  -38.2110  162.2520   -6.3120 C   0  0  0  0  0  0  0  0  0  0  0  0
  -37.8470  162.4550   -7.7700 C   0  0  0  0  0  0  0  0  0  0  0  0
  -37.4360  163.8020   -8.1720 N   0  0  0  0  0  0  0  0  0  0  0  0
  -37.1930  163.9920   -9.6090 C   0  0  0  0  0  0  0  0  0  0  0  0
  -38.1780  164.9650  -10.2990 C   0  0  0  0  0  0  0  0  0  0  0  0
  -38.2730  166.2980   -9.6670 N   0  0  0  0  0  0  0  0  0  0  0  0
  -37.4720  167.2940  -10.3720 C   0  0  0  0  0  0  0  0  0  0  0  0
  -37.9010  166.2500   -8.2370 C   0  0  0  0  0  0  0  0  0  0  0  0
  -38.2310  164.8890   -7.5830 C   0  0  0  0  0  0  0  0  0  0  0  0
  -37.9100  163.2340   -5.3560 C   0  0  0  0  0  0  0  0  0  0  0  0
  -38.2460  163.0530   -4.0110 C   0  0  0  0  0  0  0  0  0  0  0  0
  -39.2300  158.9480   -0.0340 C   0  0  0  0  0  0  0  0  0  0  0  0
  -39.5030  158.3630    1.2130 C   0  0  0  0  0  0  0  0  0  0  0  0
  -38.6100  157.4820    1.8430 N   0  0  0  0  0  0  0  0  0  0  0  0
  -37.9230  157.4810    3.0540 C   0  0  0  0  0  0  0  0  0  0  0  0
  -37.6330  158.6080    3.7170 N   0  0  0  0  0  0  0  0  0  0  0  0
  -36.9710  158.4850    4.8790 C   0  0  0  0  0  0  0  0  0  0  0  0
  -36.5920  157.2790    5.4120 C   0  0  0  0  0  0  0  0  0  0  0  0
  -36.9270  156.1600    4.6800 C   0  0  0  0  0  0  0  0  0  0  0  0
  -36.5960  154.7900    5.1080 C   0  0  0  0  0  0  0  0  0  0  0  0
  -37.5050  153.7220    5.0390 C   0  0  0  0  0  0  0  0  0  0  0  0
  -37.1350  152.4450    5.4640 C   0  0  0  0  0  0  0  0  0  0  0  0
  -35.8550  152.2580    5.9520 C   0  0  0  0  0  0  0  0  0  0  0  0
  -34.9420  153.2430    6.0370 N   0  0  0  0  0  0  0  0  0  0  0  0
  -35.3310  154.4730    5.6110 C   0  0  0  0  0  0  0  0  0  0  0  0
  -37.5840  156.2610    3.5020 N   0  0  0  0  0  0  0  0  0  0  0  0
  -40.6771  158.7650    3.9866 H   0  0  0  0  0  0  0  0  0  0  0  0
  -42.2001  158.1240    3.2820 H   0  0  0  0  0  0  0  0  0  0  0  0
  -40.7152  157.1131    3.2820 H   0  0  0  0  0  0  0  0  0  0  0  0
  -42.5551  159.8516    1.7199 H   0  0  0  0  0  0  0  0  0  0  0  0
  -42.0196  160.8508   -0.4930 H   0  0  0  0  0  0  0  0  0  0  0  0
  -39.8850  159.7510   -2.7020 H   0  0  0  0  0  0  0  0  0  0  0  0
  -39.6969  159.9685   -4.2317 H   0  0  0  0  0  0  0  0  0  0  0  0
  -39.0820  160.2896   -6.6225 H   0  0  0  0  0  0  0  0  0  0  0  0
  -37.0171  161.7716   -8.0030 H   0  0  0  0  0  0  0  0  0  0  0  0
  -38.7766  162.2625   -8.3257 H   0  0  0  0  0  0  0  0  0  0  0  0
  -36.1738  164.3857   -9.7368 H   0  0  0  0  0  0  0  0  0  0  0  0
  -37.3354  163.0104  -10.0846 H   0  0  0  0  0  0  0  0  0  0  0  0
  -37.8515  165.1019  -11.3405 H   0  0  0  0  0  0  0  0  0  0  0  0
  -39.1756  164.5092  -10.2150 H   0  0  0  0  0  0  0  0  0  0  0  0
  -36.9569  167.9345   -9.6410 H   0  0  0  0  0  0  0  0  0  0  0  0
  -36.7279  166.7862  -11.0031 H   0  0  0  0  0  0  0  0  0  0  0  0
  -38.1276  167.9119  -11.0031 H   0  0  0  0  0  0  0  0  0  0  0  0
  -36.8196  166.4308   -8.1479 H   0  0  0  0  0  0  0  0  0  0  0  0
  -38.4855  167.0215   -7.7144 H   0  0  0  0  0  0  0  0  0  0  0  0
  -38.0139  164.9478   -6.5062 H   0  0  0  0  0  0  0  0  0  0  0  0
  -39.2953  164.6716   -7.7564 H   0  0  0  0  0  0  0  0  0  0  0  0
  -37.4029  164.1586   -5.6690 H   0  0  0  0  0  0  0  0  0  0  0  0
  -38.0161  163.8384   -3.2760 H   0  0  0  0  0  0  0  0  0  0  0  0
  -38.2846  158.7016   -0.5395 H   0  0  0  0  0  0  0  0  0  0  0  0
  -38.3450  156.6540    1.3320 H   0  0  0  0  0  0  0  0  0  0  0  0
  -36.7190  159.4010    5.4335 H   0  0  0  0  0  0  0  0  0  0  0  0
  -36.0522  157.2091    6.3679 H   0  0  0  0  0  0  0  0  0  0  0  0
  -38.5182  153.8933    4.6463 H   0  0  0  0  0  0  0  0  0  0  0  0
  -37.8454  151.6068    5.4119 H   0  0  0  0  0  0  0  0  0  0  0  0
  -35.5677  151.2509    6.2885 H   0  0  0  0  0  0  0  0  0  0  0  0
  -34.5908  155.2848    5.6664 H   0  0  0  0  0  0  0  0  0  0  0  0
  1  2  1  0
  2  3  1  0
  3  4  2  0
  4  5  1  0
  5  6  1  0
  6  7  1  0
  7  8  2  0
  7  9  1  0
  9 10  1  0
 10 11  2  0
 11 12  1  0
 12 13  1  0
 13 14  1  0
 14 15  1  0
 15 16  1  0
 16 17  1  0
 17 18  1  0
 17 19  1  0
 19 20  1  0
 12 21  2  0
 21 22  1  0
  5 23  2  0
 23 24  1  0
 24 25  1  0
 25 26  1  0
 26 27  2  0
 27 28  1  0
 28 29  2  0
 29 30  1  0
 30 31  1  0
 31 32  1  0
 32 33  2  0
 33 34  1  0
 34 35  2  0
 35 36  1  0
 30 37  2  0
 24  2  2  0
 37 26  1  0
 22  9  2  0
 36 31  2  0
 20 14  1  0
  1 38  1  0
  1 39  1  0
  1 40  1  0
  3 41  1  0
  4 42  1  0
  6 43  1  0
 10 44  1  0
 11 45  1  0
 13 46  1  0
 13 47  1  0
 15 48  1  0
 15 49  1  0
 16 50  1  0
 16 51  1  0
 18 52  1  0
 18 53  1  0
 18 54  1  0
 19 55  1  0
 19 56  1  0
 20 57  1  0
 20 58  1  0
 21 59  1  0
 22 60  1  0
 23 61  1  0
 25 62  1  0
 28 63  1  0
 29 64  1  0
 32 65  1  0
 33 66  1  0
 34 67  1  0
 36 68  1  0
M  END
>  <meeko>  (7) 
{"is_sidechain": false}

>  <vina_affinity_kcal_mol>  (7) 
-10.518

>  <pose_rank>  (7) 
7

$$$$

     RDKit          3D

 68 72  0  0  0  0  0  0  0  0999 V2000
  -39.0450  165.1200   -3.9160 C   0  0  0  0  0  0  0  0  0  0  0  0
  -38.6010  164.0870   -4.9190 C   0  0  0  0  0  0  0  0  0  0  0  0
  -38.2590  164.5200   -6.2110 C   0  0  0  0  0  0  0  0  0  0  0  0
  -37.8360  163.6160   -7.1860 C   0  0  0  0  0  0  0  0  0  0  0  0
  -37.7470  162.2620   -6.8860 C   0  0  0  0  0  0  0  0  0  0  0  0
  -37.3210  161.2770   -7.8030 N   0  0  0  0  0  0  0  0  0  0  0  0
  -37.3150  161.3590   -9.1840 C   0  0  0  0  0  0  0  0  0  0  0  0
  -37.7490  162.2770   -9.8700 O   0  0  0  0  0  0  0  0  0  0  0  0
  -36.7520  160.1650   -9.8780 C   0  0  0  0  0  0  0  0  0  0  0  0
  -36.2000  159.1420   -9.1020 C   0  0  0  0  0  0  0  0  0  0  0  0
  -35.6610  158.0070   -9.7130 C   0  0  0  0  0  0  0  0  0  0  0  0
  -35.6810  157.8680  -11.1090 C   0  0  0  0  0  0  0  0  0  0  0  0
  -35.0990  156.6350  -11.7740 C   0  0  0  0  0  0  0  0  0  0  0  0
  -36.0360  155.5700  -12.1370 N   0  0  0  0  0  0  0  0  0  0  0  0
  -35.5240  154.1990  -12.0060 C   0  0  0  0  0  0  0  0  0  0  0  0
  -36.2390  153.3510  -10.9290 C   0  0  0  0  0  0  0  0  0  0  0  0
  -37.7090  153.2820  -11.0730 N   0  0  0  0  0  0  0  0  0  0  0  0
  -38.1360  152.0420  -11.7140 C   0  0  0  0  0  0  0  0  0  0  0  0
  -38.2390  154.4530  -11.8030 C   0  0  0  0  0  0  0  0  0  0  0  0
  -37.3880  155.7250  -11.5830 C   0  0  0  0  0  0  0  0  0  0  0  0
  -36.2430  158.8980  -11.8790 C   0  0  0  0  0  0  0  0  0  0  0  0
  -36.7840  160.0350  -11.2720 C   0  0  0  0  0  0  0  0  0  0  0  0
  -38.0860  161.8290   -5.5940 C   0  0  0  0  0  0  0  0  0  0  0  0
  -38.5200  162.7150   -4.5930 C   0  0  0  0  0  0  0  0  0  0  0  0
  -38.8510  162.2830   -3.2990 N   0  0  0  0  0  0  0  0  0  0  0  0
  -38.9110  161.0460   -2.6630 C   0  0  0  0  0  0  0  0  0  0  0  0
  -38.1330  160.0160   -3.0180 N   0  0  0  0  0  0  0  0  0  0  0  0
  -38.2750  158.8720   -2.3290 C   0  0  0  0  0  0  0  0  0  0  0  0
  -39.1580  158.7160   -1.2920 C   0  0  0  0  0  0  0  0  0  0  0  0
  -39.9240  159.8180   -0.9750 C   0  0  0  0  0  0  0  0  0  0  0  0
  -40.9200  159.8210    0.1100 C   0  0  0  0  0  0  0  0  0  0  0  0
  -40.8030  159.0300    1.2630 C   0  0  0  0  0  0  0  0  0  0  0  0
  -41.7820  159.0730    2.2570 C   0  0  0  0  0  0  0  0  0  0  0  0
  -42.8660  159.9130    2.0780 C   0  0  0  0  0  0  0  0  0  0  0  0
  -43.0270  160.6960    0.9960 N   0  0  0  0  0  0  0  0  0  0  0  0
  -42.0550  160.6350    0.0490 C   0  0  0  0  0  0  0  0  0  0  0  0
  -39.8060  160.9770   -1.6630 N   0  0  0  0  0  0  0  0  0  0  0  0
  -38.8804  164.7371   -2.8980 H   0  0  0  0  0  0  0  0  0  0  0  0
  -38.4642  166.0432   -4.0589 H   0  0  0  0  0  0  0  0  0  0  0  0
  -40.1145  165.3338   -4.0589 H   0  0  0  0  0  0  0  0  0  0  0  0
  -38.3258  165.5898   -6.4581 H   0  0  0  0  0  0  0  0  0  0  0  0
  -37.5730  163.9750   -8.1920 H   0  0  0  0  0  0  0  0  0  0  0  0
  -37.0520  160.3930   -7.3920 H   0  0  0  0  0  0  0  0  0  0  0  0
  -36.1899  159.2308   -8.0056 H   0  0  0  0  0  0  0  0  0  0  0  0
  -35.2164  157.2143   -9.0933 H   0  0  0  0  0  0  0  0  0  0  0  0
  -34.5950  156.9618  -12.6955 H   0  0  0  0  0  0  0  0  0  0  0  0
  -34.4379  156.1877  -11.0171 H   0  0  0  0  0  0  0  0  0  0  0  0
  -35.6415  153.6936  -12.9759 H   0  0  0  0  0  0  0  0  0  0  0  0
  -34.4733  154.2847  -11.6919 H   0  0  0  0  0  0  0  0  0  0  0  0
  -35.8412  152.3267  -10.9795 H   0  0  0  0  0  0  0  0  0  0  0  0
  -36.0438  153.8438   -9.9651 H   0  0  0  0  0  0  0  0  0  0  0  0
  -38.3915  151.2999  -10.9433 H   0  0  0  0  0  0  0  0  0  0  0  0
  -39.0183  152.2383  -12.3409 H   0  0  0  0  0  0  0  0  0  0  0  0
  -37.3199  151.6534  -12.3409 H   0  0  0  0  0  0  0  0  0  0  0  0
  -38.2542  154.2208  -12.8781 H   0  0  0  0  0  0  0  0  0  0  0  0
  -39.2490  154.6568  -11.4179 H   0  0  0  0  0  0  0  0  0  0  0  0
  -37.8814  156.5752  -12.0767 H   0  0  0  0  0  0  0  0  0  0  0  0
  -37.2999  155.8987  -10.5004 H   0  0  0  0  0  0  0  0  0  0  0  0
  -36.2580  158.8093  -12.9753 H   0  0  0  0  0  0  0  0  0  0  0  0
  -37.2344  160.8268  -11.8886 H   0  0  0  0  0  0  0  0  0  0  0  0
  -38.0091  160.7576   -5.3567 H   0  0  0  0  0  0  0  0  0  0  0  0
  -39.1500  162.9880   -2.6430 H   0  0  0  0  0  0  0  0  0  0  0  0
  -37.6486  158.0133   -2.6122 H   0  0  0  0  0  0  0  0  0  0  0  0
  -39.2502  157.7665   -0.7443 H   0  0  0  0  0  0  0  0  0  0  0  0
  -39.9316  158.3698    1.3847 H   0  0  0  0  0  0  0  0  0  0  0  0
  -41.6934  158.4533    3.1615 H   0  0  0  0  0  0  0  0  0  0  0  0
  -43.6373  159.9424    2.8618 H   0  0  0  0  0  0  0  0  0  0  0  0
  -42.1701  161.2773   -0.8365 H   0  0  0  0  0  0  0  0  0  0  0  0
  1  2  1  0
  2  3  1  0
  3  4  2  0
  4  5  1  0
  5  6  1  0
  6  7  1  0
  7  8  2  0
  7  9  1  0
  9 10  1  0
 10 11  2  0
 11 12  1  0
 12 13  1  0
 13 14  1  0
 14 15  1  0
 15 16  1  0
 16 17  1  0
 17 18  1  0
 17 19  1  0
 19 20  1  0
 12 21  2  0
 21 22  1  0
  5 23  2  0
 23 24  1  0
 24 25  1  0
 25 26  1  0
 26 27  2  0
 27 28  1  0
 28 29  2  0
 29 30  1  0
 30 31  1  0
 31 32  1  0
 32 33  2  0
 33 34  1  0
 34 35  2  0
 35 36  1  0
 30 37  2  0
 24  2  2  0
 37 26  1  0
 22  9  2  0
 36 31  2  0
 20 14  1  0
  1 38  1  0
  1 39  1  0
  1 40  1  0
  3 41  1  0
  4 42  1  0
  6 43  1  0
 10 44  1  0
 11 45  1  0
 13 46  1  0
 13 47  1  0
 15 48  1  0
 15 49  1  0
 16 50  1  0
 16 51  1  0
 18 52  1  0
 18 53  1  0
 18 54  1  0
 19 55  1  0
 19 56  1  0
 20 57  1  0
 20 58  1  0
 21 59  1  0
 22 60  1  0
 23 61  1  0
 25 62  1  0
 28 63  1  0
 29 64  1  0
 32 65  1  0
 33 66  1  0
 34 67  1  0
 36 68  1  0
M  END
>  <meeko>  (8) 
{"is_sidechain": false}

>  <vina_affinity_kcal_mol>  (8) 
-10.382

>  <pose_rank>  (8) 
8

$$$$

     RDKit          3D

 68 72  0  0  0  0  0  0  0  0999 V2000
  -36.6760  162.3870  -12.1100 C   0  0  0  0  0  0  0  0  0  0  0  0
  -37.0720  162.1490  -10.6760 C   0  0  0  0  0  0  0  0  0  0  0  0
  -37.7810  163.1590  -10.0060 C   0  0  0  0  0  0  0  0  0  0  0  0
  -38.1810  163.0000   -8.6790 C   0  0  0  0  0  0  0  0  0  0  0  0
  -37.8790  161.8270   -7.9980 C   0  0  0  0  0  0  0  0  0  0  0  0
  -38.2520  161.5740   -6.6600 N   0  0  0  0  0  0  0  0  0  0  0  0
  -37.9620  162.3410   -5.5450 C   0  0  0  0  0  0  0  0  0  0  0  0
  -37.2640  163.3470   -5.5050 O   0  0  0  0  0  0  0  0  0  0  0  0
  -38.5440  161.8340   -4.2700 C   0  0  0  0  0  0  0  0  0  0  0  0
  -38.8530  162.7560   -3.2650 C   0  0  0  0  0  0  0  0  0  0  0  0
  -39.3990  162.3220   -2.0550 C   0  0  0  0  0  0  0  0  0  0  0  0
  -39.6620  160.9610   -1.8350 C   0  0  0  0  0  0  0  0  0  0  0  0
  -40.2580  160.4880   -0.5230 C   0  0  0  0  0  0  0  0  0  0  0  0
  -39.3340  159.9300    0.4650 N   0  0  0  0  0  0  0  0  0  0  0  0
  -39.8230  159.9010    1.8510 C   0  0  0  0  0  0  0  0  0  0  0  0
  -40.0190  158.4790    2.4270 C   0  0  0  0  0  0  0  0  0  0  0  0
  -38.8280  157.6080    2.3410 N   0  0  0  0  0  0  0  0  0  0  0  0
  -38.1000  157.5520    3.6050 C   0  0  0  0  0  0  0  0  0  0  0  0
  -37.9290  158.0240    1.2430 C   0  0  0  0  0  0  0  0  0  0  0  0
  -38.6910  158.6710    0.0650 C   0  0  0  0  0  0  0  0  0  0  0  0
  -39.3540  160.0440   -2.8530 C   0  0  0  0  0  0  0  0  0  0  0  0
  -38.8070  160.4740   -4.0650 C   0  0  0  0  0  0  0  0  0  0  0  0
  -37.1730  160.8160   -8.6670 C   0  0  0  0  0  0  0  0  0  0  0  0
  -36.7520  160.9490  -10.0010 C   0  0  0  0  0  0  0  0  0  0  0  0
  -36.0530  159.9340  -10.6740 N   0  0  0  0  0  0  0  0  0  0  0  0
  -36.1440  158.5450  -10.7210 C   0  0  0  0  0  0  0  0  0  0  0  0
  -37.3180  157.9010  -10.7160 N   0  0  0  0  0  0  0  0  0  0  0  0
  -37.2840  156.5600  -10.7700 C   0  0  0  0  0  0  0  0  0  0  0  0
  -36.1220  155.8330  -10.8370 C   0  0  0  0  0  0  0  0  0  0  0  0
  -34.9510  156.5600  -10.8440 C   0  0  0  0  0  0  0  0  0  0  0  0
  -33.6180  155.9370  -10.9120 C   0  0  0  0  0  0  0  0  0  0  0  0
  -32.4240  156.6750  -10.9340 C   0  0  0  0  0  0  0  0  0  0  0  0
  -31.1890  156.0290  -11.0040 C   0  0  0  0  0  0  0  0  0  0  0  0
  -31.1710  154.6470  -11.0490 C   0  0  0  0  0  0  0  0  0  0  0  0
  -32.2820  153.8890  -11.0260 N   0  0  0  0  0  0  0  0  0  0  0  0
  -33.4680  154.5470  -10.9530 C   0  0  0  0  0  0  0  0  0  0  0  0
  -34.9610  157.9110  -10.7790 N   0  0  0  0  0  0  0  0  0  0  0  0
  -35.7335  162.9534  -12.1410 H   0  0  0  0  0  0  0  0  0  0  0  0
  -36.5400  161.4209  -12.6180 H   0  0  0  0  0  0  0  0  0  0  0  0
  -37.4653  162.9605  -12.6180 H   0  0  0  0  0  0  0  0  0  0  0  0
  -38.0251  164.0913  -10.5364 H   0  0  0  0  0  0  0  0  0  0  0  0
  -38.7355  163.8032   -8.1717 H   0  0  0  0  0  0  0  0  0  0  0  0
  -38.7290  160.6960   -6.5040 H   0  0  0  0  0  0  0  0  0  0  0  0
  -38.6652  163.8275   -3.4282 H   0  0  0  0  0  0  0  0  0  0  0  0
  -39.6253  163.0545   -1.2662 H   0  0  0  0  0  0  0  0  0  0  0  0
  -40.7607  161.3487   -0.0578 H   0  0  0  0  0  0  0  0  0  0  0  0
  -40.9216  159.6541   -0.7956 H   0  0  0  0  0  0  0  0  0  0  0  0
  -39.0966  160.4319    2.4838 H   0  0  0  0  0  0  0  0  0  0  0  0
  -40.8141  160.3781    1.8455 H   0  0  0  0  0  0  0  0  0  0  0  0
  -40.2981  158.5741    3.4868 H   0  0  0  0  0  0  0  0  0  0  0  0
  -40.7983  158.0008    1.8153 H   0  0  0  0  0  0  0  0  0  0  0  0
  -38.8125  157.6068    4.4412 H   0  0  0  0  0  0  0  0  0  0  0  0
  -37.5383  156.6080    3.6631 H   0  0  0  0  0  0  0  0  0  0  0  0
  -37.4006  158.3990    3.6631 H   0  0  0  0  0  0  0  0  0  0  0  0
  -37.2051  158.7525    1.6371 H   0  0  0  0  0  0  0  0  0  0  0  0
  -37.4291  157.1216    0.8613 H   0  0  0  0  0  0  0  0  0  0  0  0
  -37.9814  158.8755   -0.7502 H   0  0  0  0  0  0  0  0  0  0  0  0
  -39.4749  157.9728   -0.2635 H   0  0  0  0  0  0  0  0  0  0  0  0
  -39.5459  158.9726   -2.6943 H   0  0  0  0  0  0  0  0  0  0  0  0
  -38.5832  159.7446   -4.8574 H   0  0  0  0  0  0  0  0  0  0  0  0
  -36.9407  159.8857   -8.1279 H   0  0  0  0  0  0  0  0  0  0  0  0
  -35.2740  160.2170  -11.2490 H   0  0  0  0  0  0  0  0  0  0  0  0
  -38.2392  156.0145  -10.7600 H   0  0  0  0  0  0  0  0  0  0  0  0
  -36.1249  154.7339  -10.8825 H   0  0  0  0  0  0  0  0  0  0  0  0
  -32.4623  157.7737  -10.8957 H   0  0  0  0  0  0  0  0  0  0  0  0
  -30.2523  156.6053  -11.0229 H   0  0  0  0  0  0  0  0  0  0  0  0
  -30.1962  154.1406  -11.1067 H   0  0  0  0  0  0  0  0  0  0  0  0
  -34.3836  153.9381  -10.9238 H   0  0  0  0  0  0  0  0  0  0  0  0
  1  2  1  0
  2  3  1  0
  3  4  2  0
  4  5  1  0
  5  6  1  0
  6  7  1  0
  7  8  2  0
  7  9  1  0
  9 10  1  0
 10 11  2  0
 11 12  1  0
 12 13  1  0
 13 14  1  0
 14 15  1  0
 15 16  1  0
 16 17  1  0
 17 18  1  0
 17 19  1  0
 19 20  1  0
 12 21  2  0
 21 22  1  0
  5 23  2  0
 23 24  1  0
 24 25  1  0
 25 26  1  0
 26 27  2  0
 27 28  1  0
 28 29  2  0
 29 30  1  0
 30 31  1  0
 31 32  1  0
 32 33  2  0
 33 34  1  0
 34 35  2  0
 35 36  1  0
 30 37  2  0
 24  2  2  0
 37 26  1  0
 22  9  2  0
 36 31  2  0
 20 14  1  0
  1 38  1  0
  1 39  1  0
  1 40  1  0
  3 41  1  0
  4 42  1  0
  6 43  1  0
 10 44  1  0
 11 45  1  0
 13 46  1  0
 13 47  1  0
 15 48  1  0
 15 49  1  0
 16 50  1  0
 16 51  1  0
 18 52  1  0
 18 53  1  0
 18 54  1  0
 19 55  1  0
 19 56  1  0
 20 57  1  0
 20 58  1  0
 21 59  1  0
 22 60  1  0
 23 61  1  0
 25 62  1  0
 28 63  1  0
 29 64  1  0
 32 65  1  0
 33 66  1  0
 34 67  1  0
 36 68  1  0
M  END
>  <meeko>  (9) 
{"is_sidechain": false}

>  <vina_affinity_kcal_mol>  (9) 
-10.338

>  <pose_rank>  (9) 
9

$$$$

     RDKit          3D

 68 72  0  0  0  0  0  0  0  0999 V2000
  -36.7100  159.0300    5.5060 C   0  0  0  0  0  0  0  0  0  0  0  0
  -36.9140  157.5610    5.2390 C   0  0  0  0  0  0  0  0  0  0  0  0
  -36.6410  156.6540    6.2770 C   0  0  0  0  0  0  0  0  0  0  0  0
  -36.8130  155.2810    6.0970 C   0  0  0  0  0  0  0  0  0  0  0  0
  -37.2620  154.7910    4.8770 C   0  0  0  0  0  0  0  0  0  0  0  0
  -37.4740  153.4210    4.6080 N   0  0  0  0  0  0  0  0  0  0  0  0
  -37.9930  152.4650    5.4630 C   0  0  0  0  0  0  0  0  0  0  0  0
  -38.2970  152.6170    6.6400 O   0  0  0  0  0  0  0  0  0  0  0  0
  -38.1450  151.1080    4.8640 C   0  0  0  0  0  0  0  0  0  0  0  0
  -39.3000  150.8300    4.1280 C   0  0  0  0  0  0  0  0  0  0  0  0
  -39.4810  149.5700    3.5520 C   0  0  0  0  0  0  0  0  0  0  0  0
  -38.5020  148.5740    3.6850 C   0  0  0  0  0  0  0  0  0  0  0  0
  -38.6950  147.2070    3.0570 C   0  0  0  0  0  0  0  0  0  0  0  0
  -37.9640  146.9350    1.8180 N   0  0  0  0  0  0  0  0  0  0  0  0
  -37.9070  148.0420    0.8530 C   0  0  0  0  0  0  0  0  0  0  0  0
  -36.4880  148.6050    0.6120 C   0  0  0  0  0  0  0  0  0  0  0  0
  -35.4820  147.5970    0.2150 N   0  0  0  0  0  0  0  0  0  0  0  0
  -35.2560  147.5910   -1.2270 C   0  0  0  0  0  0  0  0  0  0  0  0
  -35.8520  146.2460    0.6870 C   0  0  0  0  0  0  0  0  0  0  0  0
  -36.6620  146.2780    2.0030 C   0  0  0  0  0  0  0  0  0  0  0  0
  -37.3420  148.8660    4.4200 C   0  0  0  0  0  0  0  0  0  0  0  0
  -37.1570  150.1250    4.9990 C   0  0  0  0  0  0  0  0  0  0  0  0
  -37.5370  155.6970    3.8410 C   0  0  0  0  0  0  0  0  0  0  0  0
  -37.3690  157.0840    3.9890 C   0  0  0  0  0  0  0  0  0  0  0  0
  -37.6530  157.9910    2.9560 N   0  0  0  0  0  0  0  0  0  0  0  0
  -38.8150  158.4300    2.3290 C   0  0  0  0  0  0  0  0  0  0  0  0
  -40.0210  158.3330    2.9000 N   0  0  0  0  0  0  0  0  0  0  0  0
  -41.0720  158.7960    2.2030 C   0  0  0  0  0  0  0  0  0  0  0  0
  -40.9670  159.3590    0.9570 C   0  0  0  0  0  0  0  0  0  0  0  0
  -39.6950  159.4320    0.4300 C   0  0  0  0  0  0  0  0  0  0  0  0
  -39.4040  160.0070   -0.8950 C   0  0  0  0  0  0  0  0  0  0  0  0
  -38.9100  159.2510   -1.9700 C   0  0  0  0  0  0  0  0  0  0  0  0
  -38.6500  159.8530   -3.2020 C   0  0  0  0  0  0  0  0  0  0  0  0
  -38.8910  161.2080   -3.3380 C   0  0  0  0  0  0  0  0  0  0  0  0
  -39.3680  161.9800   -2.3440 N   0  0  0  0  0  0  0  0  0  0  0  0
  -39.6160  161.3630   -1.1590 C   0  0  0  0  0  0  0  0  0  0  0  0
  -38.6240  158.9620    1.1100 N   0  0  0  0  0  0  0  0  0  0  0  0
  -36.6856  159.2054    6.5916 H   0  0  0  0  0  0  0  0  0  0  0  0
  -35.7581  159.3549    5.0606 H   0  0  0  0  0  0  0  0  0  0  0  0
  -37.5373  159.6020    5.0606 H   0  0  0  0  0  0  0  0  0  0  0  0
  -36.2860  157.0324    7.2470 H   0  0  0  0  0  0  0  0  0  0  0  0
  -36.5930  154.5865    6.9212 H   0  0  0  0  0  0  0  0  0  0  0  0
  -37.1450  153.1040    3.7050 H   0  0  0  0  0  0  0  0  0  0  0  0
  -40.0694  151.6060    4.0017 H   0  0  0  0  0  0  0  0  0  0  0  0
  -40.4011  149.3567    2.9881 H   0  0  0  0  0  0  0  0  0  0  0  0
  -38.3844  146.4550    3.7973 H   0  0  0  0  0  0  0  0  0  0  0  0
  -39.7577  147.1697    2.7755 H   0  0  0  0  0  0  0  0  0  0  0  0
  -38.3021  147.6815   -0.1082 H   0  0  0  0  0  0  0  0  0  0  0  0
  -38.5024  148.8624    1.2801 H   0  0  0  0  0  0  0  0  0  0  0  0
  -36.5499  149.3598   -0.1858 H   0  0  0  0  0  0  0  0  0  0  0  0
  -36.1505  149.0182    1.5739 H   0  0  0  0  0  0  0  0  0  0  0  0
  -34.1750  147.5623   -1.4286 H   0  0  0  0  0  0  0  0  0  0  0  0
  -35.7352  146.7053   -1.6696 H   0  0  0  0  0  0  0  0  0  0  0  0
  -35.6875  148.5009   -1.6696 H   0  0  0  0  0  0  0  0  0  0  0  0
  -36.4588  145.7557   -0.0885 H   0  0  0  0  0  0  0  0  0  0  0  0
  -34.9206  145.6943    0.8821 H   0  0  0  0  0  0  0  0  0  0  0  0
  -36.8278  145.2461    2.3459 H   0  0  0  0  0  0  0  0  0  0  0  0
  -36.0890  146.8505    2.7473 H   0  0  0  0  0  0  0  0  0  0  0  0
  -36.5682  148.0937    4.5420 H   0  0  0  0  0  0  0  0  0  0  0  0
  -36.2363  150.3431    5.5600 H   0  0  0  0  0  0  0  0  0  0  0  0
  -37.8973  155.3068    2.8777 H   0  0  0  0  0  0  0  0  0  0  0  0
  -36.8670  158.4350    2.5080 H   0  0  0  0  0  0  0  0  0  0  0  0
  -42.0712  158.7193    2.6565 H   0  0  0  0  0  0  0  0  0  0  0  0
  -41.8461  159.7306    0.4100 H   0  0  0  0  0  0  0  0  0  0  0  0
  -38.7262  158.1743   -1.8400 H   0  0  0  0  0  0  0  0  0  0  0  0
  -38.2622  159.2631   -4.0456 H   0  0  0  0  0  0  0  0  0  0  0  0
  -38.6819  161.6796   -4.3095 H   0  0  0  0  0  0  0  0  0  0  0  0
  -40.0160  161.9807   -0.3414 H   0  0  0  0  0  0  0  0  0  0  0  0
  1  2  1  0
  2  3  1  0
  3  4  2  0
  4  5  1  0
  5  6  1  0
  6  7  1  0
  7  8  2  0
  7  9  1  0
  9 10  1  0
 10 11  2  0
 11 12  1  0
 12 13  1  0
 13 14  1  0
 14 15  1  0
 15 16  1  0
 16 17  1  0
 17 18  1  0
 17 19  1  0
 19 20  1  0
 12 21  2  0
 21 22  1  0
  5 23  2  0
 23 24  1  0
 24 25  1  0
 25 26  1  0
 26 27  2  0
 27 28  1  0
 28 29  2  0
 29 30  1  0
 30 31  1  0
 31 32  1  0
 32 33  2  0
 33 34  1  0
 34 35  2  0
 35 36  1  0
 30 37  2  0
 24  2  2  0
 37 26  1  0
 22  9  2  0
 36 31  2  0
 20 14  1  0
  1 38  1  0
  1 39  1  0
  1 40  1  0
  3 41  1  0
  4 42  1  0
  6 43  1  0
 10 44  1  0
 11 45  1  0
 13 46  1  0
 13 47  1  0
 15 48  1  0
 15 49  1  0
 16 50  1  0
 16 51  1  0
 18 52  1  0
 18 53  1  0
 18 54  1  0
 19 55  1  0
 19 56  1  0
 20 57  1  0
 20 58  1  0
 21 59  1  0
 22 60  1  0
 23 61  1  0
 25 62  1  0
 28 63  1  0
 29 64  1  0
 32 65  1  0
 33 66  1  0
 34 67  1  0
 36 68  1  0
M  END
>  <meeko>  (10) 
{"is_sidechain": false}

>  <vina_affinity_kcal_mol>  (10) 
-10.317

>  <pose_rank>  (10) 
10

$$$$
