
     RDKit          3D

 42 45  0  0  0  0  0  0  0  0999 V2000
   -4.6356    0.8350   -1.2947 C   0  0  0  0  0  0  0  0  0  0  0  0
   -4.3301    0.4731    0.0938 N   0  0  0  0  0  0  0  0  0  0  0  0
   -4.9906    1.3106    1.0944 C   0  0  0  0  0  0  0  0  0  0  0  0
   -2.9242    0.3361    0.2687 C   0  0  0  0  0  0  0  0  0  0  0  0
   -2.1127    1.4547    0.5099 C   0  0  0  0  0  0  0  0  0  0  0  0
   -0.7338    1.3236    0.6437 C   0  0  0  0  0  0  0  0  0  0  0  0
   -0.1246    0.0701    0.5249 C   0  0  0  0  0  0  0  0  0  0  0  0
    1.3343   -0.0037    0.7100 C   0  0  0  0  0  0  0  0  0  0  0  0
    2.2591    0.4404   -0.1538 C   0  0  0  0  0  0  0  0  0  0  0  0
    2.0344    1.1067   -1.4899 C   0  0  0  0  0  0  0  0  0  0  0  0
    0.9873    1.3930   -2.0349 O   0  0  0  0  0  0  0  0  0  0  0  0
    3.3087    1.3449   -1.9857 N   0  0  0  0  0  0  0  0  0  0  0  0
    4.2909    0.9039   -1.1050 C   0  0  0  0  0  0  0  0  0  0  0  0
    5.6572    0.9848   -1.2807 C   0  0  0  0  0  0  0  0  0  0  0  0
    6.4653    0.4770   -0.2608 C   0  0  0  0  0  0  0  0  0  0  0  0
    5.8955   -0.0911    0.8940 C   0  0  0  0  0  0  0  0  0  0  0  0
    4.5062   -0.1624    1.0501 C   0  0  0  0  0  0  0  0  0  0  0  0
    3.7110    0.3419    0.0361 C   0  0  0  0  0  0  0  0  0  0  0  0
   -0.9093   -1.0871    0.2781 C   0  0  0  0  0  0  0  0  0  0  0  0
   -0.3454   -2.3808    0.1473 C   0  0  0  0  0  0  0  0  0  0  0  0
   -1.1316   -3.5097   -0.0859 C   0  0  0  0  0  0  0  0  0  0  0  0
   -2.5062   -3.3771   -0.1939 C   0  0  0  0  0  0  0  0  0  0  0  0
   -3.0876   -2.1150   -0.0751 C   0  0  0  0  0  0  0  0  0  0  0  0
   -2.3192   -0.9502    0.1534 C   0  0  0  0  0  0  0  0  0  0  0  0
   -4.2038    0.1163   -2.0007 H   0  0  0  0  0  0  0  0  0  0  0  0
   -4.2688    1.8381   -1.5425 H   0  0  0  0  0  0  0  0  0  0  0  0
   -5.7203    0.8241   -1.4490 H   0  0  0  0  0  0  0  0  0  0  0  0
   -6.0751    1.1695    1.0273 H   0  0  0  0  0  0  0  0  0  0  0  0
   -4.7863    2.3768    0.9468 H   0  0  0  0  0  0  0  0  0  0  0  0
   -4.6915    1.0239    2.1091 H   0  0  0  0  0  0  0  0  0  0  0  0
   -2.5426    2.4493    0.5711 H   0  0  0  0  0  0  0  0  0  0  0  0
   -0.1354    2.2138    0.8224 H   0  0  0  0  0  0  0  0  0  0  0  0
    1.6307   -0.4858    1.6376 H   0  0  0  0  0  0  0  0  0  0  0  0
    3.4670    1.7863   -2.8779 H   0  0  0  0  0  0  0  0  0  0  0  0
    6.0933    1.4228   -2.1709 H   0  0  0  0  0  0  0  0  0  0  0  0
    7.5481    0.5203   -0.3581 H   0  0  0  0  0  0  0  0  0  0  0  0
    6.5454   -0.4801    1.6754 H   0  0  0  0  0  0  0  0  0  0  0  0
    4.0779   -0.6021    1.9441 H   0  0  0  0  0  0  0  0  0  0  0  0
    0.7304   -2.5227    0.2201 H   0  0  0  0  0  0  0  0  0  0  0  0
   -0.6669   -4.4867   -0.1830 H   0  0  0  0  0  0  0  0  0  0  0  0
   -3.1310   -4.2474   -0.3720 H   0  0  0  0  0  0  0  0  0  0  0  0
   -4.1701   -2.0351   -0.1592 H   0  0  0  0  0  0  0  0  0  0  0  0
  1  2  1  0
  2  3  1  0
  2  4  1  0
  4  5  2  0
  5  6  1  0
  6  7  2  0
  7  8  1  0
  8  9  2  0
  9 10  1  0
 10 11  2  0
 10 12  1  0
 12 13  1  0
 13 14  2  0
 14 15  1  0
 15 16  2  0
 16 17  1  0
 17 18  2  0
  7 19  1  0
 19 20  2  0
 20 21  1  0
 21 22  2  0
 22 23  1  0
 23 24  2  0
 24  4  1  0
 18  9  1  0
 24 19  1  0
 18 13  1  0
  1 25  1  0
  1 26  1  0
  1 27  1  0
  3 28  1  0
  3 29  1  0
  3 30  1  0
  5 31  1  0
  6 32  1  0
  8 33  1  0
 12 34  1  0
 14 35  1  0
 15 36  1  0
 16 37  1  0
 17 38  1  0
 20 39  1  0
 21 40  1  0
 22 41  1  0
 23 42  1  0
M  END
$$$$
