
     RDKit          3D

 42 45  0  0  0  0  0  0  0  0999 V2000
  -38.3080  162.5730   -8.6990 C   0  0  0  0  0  0  0  0  0  0  0  0
  -37.3460  162.1900   -7.6580 N   0  0  0  0  0  0  0  0  0  0  0  0
  -36.4110  161.1400   -8.0600 C   0  0  0  0  0  0  0  0  0  0  0  0
  -38.0220  161.9450   -6.4290 C   0  0  0  0  0  0  0  0  0  0  0  0
  -38.5520  160.6800   -6.1350 C   0  0  0  0  0  0  0  0  0  0  0  0
  -39.2450  160.4520   -4.9500 C   0  0  0  0  0  0  0  0  0  0  0  0
  -39.4390  161.4890   -4.0310 C   0  0  0  0  0  0  0  0  0  0  0  0
  -40.1520  161.1730   -2.7810 C   0  0  0  0  0  0  0  0  0  0  0  0
  -39.6850  160.4100   -1.7820 C   0  0  0  0  0  0  0  0  0  0  0  0
  -38.3500  159.7090   -1.6980 C   0  0  0  0  0  0  0  0  0  0  0  0
  -37.4330  159.7120   -2.4950 O   0  0  0  0  0  0  0  0  0  0  0  0
  -38.3760  159.0430   -0.4800 N   0  0  0  0  0  0  0  0  0  0  0  0
  -39.5730  159.2580    0.1950 C   0  0  0  0  0  0  0  0  0  0  0  0
  -39.9310  158.7500    1.4270 C   0  0  0  0  0  0  0  0  0  0  0  0
  -41.1900  159.0970    1.9210 C   0  0  0  0  0  0  0  0  0  0  0  0
  -42.0480  159.9330    1.1820 C   0  0  0  0  0  0  0  0  0  0  0  0
  -41.6630  160.4370   -0.0660 C   0  0  0  0  0  0  0  0  0  0  0  0
  -40.4150  160.0880   -0.5500 C   0  0  0  0  0  0  0  0  0  0  0  0
  -38.9210  162.7850   -4.2910 C   0  0  0  0  0  0  0  0  0  0  0  0
  -39.0900  163.8710   -3.3970 C   0  0  0  0  0  0  0  0  0  0  0  0
  -38.5650  165.1370   -3.6640 C   0  0  0  0  0  0  0  0  0  0  0  0
  -37.8560  165.3510   -4.8340 C   0  0  0  0  0  0  0  0  0  0  0  0
  -37.6790  164.3020   -5.7350 C   0  0  0  0  0  0  0  0  0  0  0  0
  -38.2050  163.0100   -5.4990 C   0  0  0  0  0  0  0  0  0  0  0  0
  -39.2314  162.9406   -8.2276 H   0  0  0  0  0  0  0  0  0  0  0  0
  -37.8745  163.3671   -9.3247 H   0  0  0  0  0  0  0  0  0  0  0  0
  -38.5389  161.6982   -9.3247 H   0  0  0  0  0  0  0  0  0  0  0  0
  -35.9870  160.6638   -7.1637 H   0  0  0  0  0  0  0  0  0  0  0  0
  -36.9421  160.3859   -8.6594 H   0  0  0  0  0  0  0  0  0  0  0  0
  -35.6006  161.5805   -8.6594 H   0  0  0  0  0  0  0  0  0  0  0  0
  -38.4179  159.8562   -6.8516 H   0  0  0  0  0  0  0  0  0  0  0  0
  -39.6431  159.4495   -4.7343 H   0  0  0  0  0  0  0  0  0  0  0  0
  -41.1574  161.6013   -2.6560 H   0  0  0  0  0  0  0  0  0  0  0  0
  -37.6050  158.4810   -0.1560 H   0  0  0  0  0  0  0  0  0  0  0  0
  -39.2522  158.0983    1.9967 H   0  0  0  0  0  0  0  0  0  0  0  0
  -41.5151  158.7126    2.8990 H   0  0  0  0  0  0  0  0  0  0  0  0
  -43.0352  160.1941    1.5910 H   0  0  0  0  0  0  0  0  0  0  0  0
  -42.3326  161.0907   -0.6442 H   0  0  0  0  0  0  0  0  0  0  0  0
  -39.6516  163.7121   -2.4646 H   0  0  0  0  0  0  0  0  0  0  0  0
  -38.7138  165.9596   -2.9490 H   0  0  0  0  0  0  0  0  0  0  0  0
  -37.4346  166.3436   -5.0514 H   0  0  0  0  0  0  0  0  0  0  0  0
  -37.1119  164.4848   -6.6596 H   0  0  0  0  0  0  0  0  0  0  0  0
  1  2  1  0
  2  3  1  0
  2  4  1  0
  4  5  2  0
  5  6  1  0
  6  7  2  0
  7  8  1  0
  8  9  2  0
  9 10  1  0
 10 11  2  0
 10 12  1  0
 12 13  1  0
 13 14  2  0
 14 15  1  0
 15 16  2  0
 16 17  1  0
 17 18  2  0
  7 19  1  0
 19 20  2  0
 20 21  1  0
 21 22  2  0
 22 23  1  0
 23 24  2  0
 24  4  1  0
 18  9  1  0
 24 19  1  0
 18 13  1  0
  1 25  1  0
  1 26  1  0
  1 27  1  0
  3 28  1  0
  3 29  1  0
  3 30  1  0
  5 31  1  0
  6 32  1  0
  8 33  1  0
 12 34  1  0
 14 35  1  0
 15 36  1  0
 16 37  1  0
 17 38  1  0
 20 39  1  0
 21 40  1  0
 22 41  1  0
 23 42  1  0
M  END
>  <meeko>  (1) 
{"is_sidechain": false}

>  <vina_affinity_kcal_mol>  (1) 
-9.381

>  <pose_rank>  (1) 
1

$$$$

     RDKit          3D

 42 45  0  0  0  0  0  0  0  0999 V2000
  -38.2610  158.7740    3.8250 C   0  0  0  0  0  0  0  0  0  0  0  0
  -38.9820  157.9810    2.8220 N   0  0  0  0  0  0  0  0  0  0  0  0
  -38.5630  156.5820    2.7450 C   0  0  0  0  0  0  0  0  0  0  0  0
  -39.0000  158.6660    1.5740 C   0  0  0  0  0  0  0  0  0  0  0  0
  -37.8450  158.7570    0.7830 C   0  0  0  0  0  0  0  0  0  0  0  0
  -37.8550  159.4580   -0.4200 C   0  0  0  0  0  0  0  0  0  0  0  0
  -39.0170  160.1020   -0.8570 C   0  0  0  0  0  0  0  0  0  0  0  0
  -38.9690  160.7980   -2.1530 C   0  0  0  0  0  0  0  0  0  0  0  0
  -38.8370  162.1220   -2.3300 C   0  0  0  0  0  0  0  0  0  0  0  0
  -38.7080  163.1890   -1.2690 C   0  0  0  0  0  0  0  0  0  0  0  0
  -38.6760  163.0670   -0.0610 O   0  0  0  0  0  0  0  0  0  0  0  0
  -38.6230  164.3810   -1.9760 N   0  0  0  0  0  0  0  0  0  0  0  0
  -38.6800  164.1670   -3.3490 C   0  0  0  0  0  0  0  0  0  0  0  0
  -38.6220  165.1270   -4.3390 C   0  0  0  0  0  0  0  0  0  0  0  0
  -38.6970  164.6860   -5.6620 C   0  0  0  0  0  0  0  0  0  0  0  0
  -38.8270  163.3160   -5.9590 C   0  0  0  0  0  0  0  0  0  0  0  0
  -38.8840  162.3610   -4.9370 C   0  0  0  0  0  0  0  0  0  0  0  0
  -38.8100  162.8040   -3.6290 C   0  0  0  0  0  0  0  0  0  0  0  0
  -40.2060  160.0370   -0.0840 C   0  0  0  0  0  0  0  0  0  0  0  0
  -41.4110  160.6720   -0.4780 C   0  0  0  0  0  0  0  0  0  0  0  0
  -42.5740  160.5900    0.2890 C   0  0  0  0  0  0  0  0  0  0  0  0
  -42.5650  159.8700    1.4720 C   0  0  0  0  0  0  0  0  0  0  0  0
  -41.3920  159.2410    1.8880 C   0  0  0  0  0  0  0  0  0  0  0  0
  -40.1950  159.3100    1.1380 C   0  0  0  0  0  0  0  0  0  0  0  0
  -38.5576  158.4478    4.8328 H   0  0  0  0  0  0  0  0  0  0  0  0
  -37.1780  158.6301    3.6969 H   0  0  0  0  0  0  0  0  0  0  0  0
  -38.5071  159.8384    3.6969 H   0  0  0  0  0  0  0  0  0  0  0  0
  -38.4423  156.1789    3.7613 H   0  0  0  0  0  0  0  0  0  0  0  0
  -39.3262  155.9997    2.2079 H   0  0  0  0  0  0  0  0  0  0  0  0
  -37.6054  156.5151    2.2079 H   0  0  0  0  0  0  0  0  0  0  0  0
  -36.9185  158.2677    1.1178 H   0  0  0  0  0  0  0  0  0  0  0  0
  -36.9418  159.5056   -1.0314 H   0  0  0  0  0  0  0  0  0  0  0  0
  -39.0484  160.1774   -3.0578 H   0  0  0  0  0  0  0  0  0  0  0  0
  -38.5300  165.2740   -1.5180 H   0  0  0  0  0  0  0  0  0  0  0  0
  -38.5209  166.1951   -4.0960 H   0  0  0  0  0  0  0  0  0  0  0  0
  -38.6540  165.4180   -6.4820 H   0  0  0  0  0  0  0  0  0  0  0  0
  -38.8846  162.9915   -7.0085 H   0  0  0  0  0  0  0  0  0  0  0  0
  -38.9846  161.2901   -5.1675 H   0  0  0  0  0  0  0  0  0  0  0  0
  -41.4297  161.2463   -1.4160 H   0  0  0  0  0  0  0  0  0  0  0  0
  -43.4929  161.0945   -0.0443 H   0  0  0  0  0  0  0  0  0  0  0  0
  -43.4784  159.7947    2.0803 H   0  0  0  0  0  0  0  0  0  0  0  0
  -41.3979  158.6728    2.8299 H   0  0  0  0  0  0  0  0  0  0  0  0
  1  2  1  0
  2  3  1  0
  2  4  1  0
  4  5  2  0
  5  6  1  0
  6  7  2  0
  7  8  1  0
  8  9  2  0
  9 10  1  0
 10 11  2  0
 10 12  1  0
 12 13  1  0
 13 14  2  0
 14 15  1  0
 15 16  2  0
 16 17  1  0
 17 18  2  0
  7 19  1  0
 19 20  2  0
 20 21  1  0
 21 22  2  0
 22 23  1  0
 23 24  2  0
 24  4  1  0
 18  9  1  0
 24 19  1  0
 18 13  1  0
  1 25  1  0
  1 26  1  0
  1 27  1  0
  3 28  1  0
  3 29  1  0
  3 30  1  0
  5 31  1  0
  6 32  1  0
  8 33  1  0
 12 34  1  0
 14 35  1  0
 15 36  1  0
 16 37  1  0
 17 38  1  0
 20 39  1  0
 21 40  1  0
 22 41  1  0
 23 42  1  0
M  END
>  <meeko>  (2) 
{"is_sidechain": false}

>  <vina_affinity_kcal_mol>  (2) 
-9.043

>  <pose_rank>  (2) 
2

$$$$

     RDKit          3D

 42 45  0  0  0  0  0  0  0  0999 V2000
  -40.2950  157.9760    3.0230 C   0  0  0  0  0  0  0  0  0  0  0  0
  -39.1790  157.7810    2.0900 N   0  0  0  0  0  0  0  0  0  0  0  0
  -37.8980  157.4990    2.7350 C   0  0  0  0  0  0  0  0  0  0  0  0
  -39.1440  158.8380    1.1360 C   0  0  0  0  0  0  0  0  0  0  0  0
  -37.9420  159.2180    0.5220 C   0  0  0  0  0  0  0  0  0  0  0  0
  -37.9030  160.2760   -0.3820 C   0  0  0  0  0  0  0  0  0  0  0  0
  -39.0650  160.9930   -0.6850 C   0  0  0  0  0  0  0  0  0  0  0  0
  -38.9610  162.0790   -1.6740 C   0  0  0  0  0  0  0  0  0  0  0  0
  -38.8720  161.9250   -3.0040 C   0  0  0  0  0  0  0  0  0  0  0  0
  -38.8580  160.6350   -3.7880 C   0  0  0  0  0  0  0  0  0  0  0  0
  -38.9460  159.4930   -3.3830 O   0  0  0  0  0  0  0  0  0  0  0  0
  -38.7280  161.0270   -5.1140 N   0  0  0  0  0  0  0  0  0  0  0  0
  -38.6650  162.4110   -5.2330 C   0  0  0  0  0  0  0  0  0  0  0  0
  -38.5380  163.1360   -6.4010 C   0  0  0  0  0  0  0  0  0  0  0  0
  -38.4960  164.5280   -6.2890 C   0  0  0  0  0  0  0  0  0  0  0  0
  -38.5810  165.1520   -5.0300 C   0  0  0  0  0  0  0  0  0  0  0  0
  -38.7090  164.3960   -3.8590 C   0  0  0  0  0  0  0  0  0  0  0  0
  -38.7500  163.0180   -3.9760 C   0  0  0  0  0  0  0  0  0  0  0  0
  -40.3010  160.6430   -0.0830 C   0  0  0  0  0  0  0  0  0  0  0  0
  -41.5080  161.3360   -0.3530 C   0  0  0  0  0  0  0  0  0  0  0  0
  -42.7180  160.9720    0.2400 C   0  0  0  0  0  0  0  0  0  0  0  0
  -42.7550  159.9040    1.1200 C   0  0  0  0  0  0  0  0  0  0  0  0
  -41.5820  159.2070    1.4090 C   0  0  0  0  0  0  0  0  0  0  0  0
  -40.3390  159.5550    0.8310 C   0  0  0  0  0  0  0  0  0  0  0  0
  -39.9244  157.9112    4.0566 H   0  0  0  0  0  0  0  0  0  0  0  0
  -40.7440  158.9662    2.8558 H   0  0  0  0  0  0  0  0  0  0  0  0
  -41.0531  157.1967    2.8558 H   0  0  0  0  0  0  0  0  0  0  0  0
  -38.0236  157.5266    3.8275 H   0  0  0  0  0  0  0  0  0  0  0  0
  -37.5463  156.5019    2.4315 H   0  0  0  0  0  0  0  0  0  0  0  0
  -37.1601  158.2562    2.4315 H   0  0  0  0  0  0  0  0  0  0  0  0
  -37.0165  158.6723    0.7580 H   0  0  0  0  0  0  0  0  0  0  0  0
  -36.9516  160.5500   -0.8613 H   0  0  0  0  0  0  0  0  0  0  0  0
  -38.9558  163.1090   -1.2878 H   0  0  0  0  0  0  0  0  0  0  0  0
  -38.6890  160.3640   -5.8710 H   0  0  0  0  0  0  0  0  0  0  0  0
  -38.4726  162.6381   -7.3797 H   0  0  0  0  0  0  0  0  0  0  0  0
  -38.3953  165.1435   -7.1951 H   0  0  0  0  0  0  0  0  0  0  0  0
  -38.5463  166.2496   -4.9655 H   0  0  0  0  0  0  0  0  0  0  0  0
  -38.7750  164.8830   -2.8749 H   0  0  0  0  0  0  0  0  0  0  0  0
  -41.4904  162.1861   -1.0508 H   0  0  0  0  0  0  0  0  0  0  0  0
  -43.6371  161.5307    0.0094 H   0  0  0  0  0  0  0  0  0  0  0  0
  -43.7046  159.6066    1.5889 H   0  0  0  0  0  0  0  0  0  0  0  0
  -41.6250  158.3595    2.1089 H   0  0  0  0  0  0  0  0  0  0  0  0
  1  2  1  0
  2  3  1  0
  2  4  1  0
  4  5  2  0
  5  6  1  0
  6  7  2  0
  7  8  1  0
  8  9  2  0
  9 10  1  0
 10 11  2  0
 10 12  1  0
 12 13  1  0
 13 14  2  0
 14 15  1  0
 15 16  2  0
 16 17  1  0
 17 18  2  0
  7 19  1  0
 19 20  2  0
 20 21  1  0
 21 22  2  0
 22 23  1  0
 23 24  2  0
 24  4  1  0
 18  9  1  0
 24 19  1  0
 18 13  1  0
  1 25  1  0
  1 26  1  0
  1 27  1  0
  3 28  1  0
  3 29  1  0
  3 30  1  0
  5 31  1  0
  6 32  1  0
  8 33  1  0
 12 34  1  0
 14 35  1  0
 15 36  1  0
 16 37  1  0
 17 38  1  0
 20 39  1  0
 21 40  1  0
 22 41  1  0
 23 42  1  0
M  END
>  <meeko>  (3) 
{"is_sidechain": false}

>  <vina_affinity_kcal_mol>  (3) 
-8.637

>  <pose_rank>  (3) 
3

$$$$

     RDKit          3D

 42 45  0  0  0  0  0  0  0  0999 V2000
  -34.4610  147.1410    3.0050 C   0  0  0  0  0  0  0  0  0  0  0  0
  -34.1250  147.9380    1.8190 N   0  0  0  0  0  0  0  0  0  0  0  0
  -33.7290  149.3150    2.1120 C   0  0  0  0  0  0  0  0  0  0  0  0
  -35.1440  147.8090    0.8330 C   0  0  0  0  0  0  0  0  0  0  0  0
  -36.4190  148.3560    1.0370 C   0  0  0  0  0  0  0  0  0  0  0  0
  -37.4260  148.1970    0.0880 C   0  0  0  0  0  0  0  0  0  0  0  0
  -37.1880  147.4730   -1.0850 C   0  0  0  0  0  0  0  0  0  0  0  0
  -38.2850  147.3700   -2.0610 C   0  0  0  0  0  0  0  0  0  0  0  0
  -39.2180  146.4070   -2.0970 C   0  0  0  0  0  0  0  0  0  0  0  0
  -39.3650  145.2250   -1.1680 C   0  0  0  0  0  0  0  0  0  0  0  0
  -38.6940  144.9240   -0.2020 O   0  0  0  0  0  0  0  0  0  0  0  0
  -40.4660  144.5300   -1.6510 N   0  0  0  0  0  0  0  0  0  0  0  0
  -41.0140  145.1520   -2.7680 C   0  0  0  0  0  0  0  0  0  0  0  0
  -42.1100  144.7340   -3.4940 C   0  0  0  0  0  0  0  0  0  0  0  0
  -42.4910  145.5160   -4.5870 C   0  0  0  0  0  0  0  0  0  0  0  0
  -41.7770  146.6820   -4.9210 C   0  0  0  0  0  0  0  0  0  0  0  0
  -40.6680  147.0870   -4.1700 C   0  0  0  0  0  0  0  0  0  0  0  0
  -40.2950  146.3070   -3.0890 C   0  0  0  0  0  0  0  0  0  0  0  0
  -35.9120  146.9000   -1.3270 C   0  0  0  0  0  0  0  0  0  0  0  0
  -35.6170  146.1550   -2.4970 C   0  0  0  0  0  0  0  0  0  0  0  0
  -34.3530  145.6080   -2.7240 C   0  0  0  0  0  0  0  0  0  0  0  0
  -33.3490  145.7900   -1.7890 C   0  0  0  0  0  0  0  0  0  0  0  0
  -33.6130  146.5130   -0.6260 C   0  0  0  0  0  0  0  0  0  0  0  0
  -34.8840  147.0740   -0.3610 C   0  0  0  0  0  0  0  0  0  0  0  0
  -34.2194  147.7140    3.9123 H   0  0  0  0  0  0  0  0  0  0  0  0
  -35.5353  146.9048    2.9957 H   0  0  0  0  0  0  0  0  0  0  0  0
  -33.8801  146.2070    2.9957 H   0  0  0  0  0  0  0  0  0  0  0  0
  -33.6871  149.4606    3.2015 H   0  0  0  0  0  0  0  0  0  0  0  0
  -32.7378  149.5119    1.6774 H   0  0  0  0  0  0  0  0  0  0  0  0
  -34.4642  150.0083    1.6774 H   0  0  0  0  0  0  0  0  0  0  0  0
  -36.6267  148.9184    1.9592 H   0  0  0  0  0  0  0  0  0  0  0  0
  -38.4158  148.6441    0.2622 H   0  0  0  0  0  0  0  0  0  0  0  0
  -38.3451  148.1537   -2.8305 H   0  0  0  0  0  0  0  0  0  0  0  0
  -40.8000  143.6830   -1.2210 H   0  0  0  0  0  0  0  0  0  0  0  0
  -42.6617  143.8217   -3.2231 H   0  0  0  0  0  0  0  0  0  0  0  0
  -43.3587  145.2172   -5.1934 H   0  0  0  0  0  0  0  0  0  0  0  0
  -42.0954  147.2837   -5.7850 H   0  0  0  0  0  0  0  0  0  0  0  0
  -40.1093  147.9980   -4.4308 H   0  0  0  0  0  0  0  0  0  0  0  0
  -36.4070  146.0038   -3.2473 H   0  0  0  0  0  0  0  0  0  0  0  0
  -34.1558  145.0349   -3.6419 H   0  0  0  0  0  0  0  0  0  0  0  0
  -32.3485  145.3668   -1.9622 H   0  0  0  0  0  0  0  0  0  0  0  0
  -32.8065  146.6514    0.1091 H   0  0  0  0  0  0  0  0  0  0  0  0
  1  2  1  0
  2  3  1  0
  2  4  1  0
  4  5  2  0
  5  6  1  0
  6  7  2  0
  7  8  1  0
  8  9  2  0
  9 10  1  0
 10 11  2  0
 10 12  1  0
 12 13  1  0
 13 14  2  0
 14 15  1  0
 15 16  2  0
 16 17  1  0
 17 18  2  0
  7 19  1  0
 19 20  2  0
 20 21  1  0
 21 22  2  0
 22 23  1  0
 23 24  2  0
 24  4  1  0
 18  9  1  0
 24 19  1  0
 18 13  1  0
  1 25  1  0
  1 26  1  0
  1 27  1  0
  3 28  1  0
  3 29  1  0
  3 30  1  0
  5 31  1  0
  6 32  1  0
  8 33  1  0
 12 34  1  0
 14 35  1  0
 15 36  1  0
 16 37  1  0
 17 38  1  0
 20 39  1  0
 21 40  1  0
 22 41  1  0
 23 42  1  0
M  END
>  <meeko>  (4) 
{"is_sidechain": false}

>  <vina_affinity_kcal_mol>  (4) 
-8.025

>  <pose_rank>  (4) 
4

$$$$

     RDKit          3D

 42 45  0  0  0  0  0  0  0  0999 V2000
  -37.0890  166.9990   -9.3350 C   0  0  0  0  0  0  0  0  0  0  0  0
  -37.3330  165.6320   -9.8090 N   0  0  0  0  0  0  0  0  0  0  0  0
  -38.2420  165.5450  -10.9520 C   0  0  0  0  0  0  0  0  0  0  0  0
  -37.6690  164.7840   -8.7170 C   0  0  0  0  0  0  0  0  0  0  0  0
  -38.2440  165.3040   -7.5480 C   0  0  0  0  0  0  0  0  0  0  0  0
  -38.5370  164.4790   -6.4660 C   0  0  0  0  0  0  0  0  0  0  0  0
  -38.2490  163.1110   -6.5180 C   0  0  0  0  0  0  0  0  0  0  0  0
  -38.6150  162.2880   -5.3530 C   0  0  0  0  0  0  0  0  0  0  0  0
  -38.6820  162.7120   -4.0820 C   0  0  0  0  0  0  0  0  0  0  0  0
  -38.4060  164.0990   -3.5520 C   0  0  0  0  0  0  0  0  0  0  0  0
  -38.0950  165.1020   -4.1620 O   0  0  0  0  0  0  0  0  0  0  0  0
  -38.5940  163.9980   -2.1800 N   0  0  0  0  0  0  0  0  0  0  0  0
  -38.9570  162.7080   -1.8070 C   0  0  0  0  0  0  0  0  0  0  0  0
  -39.2220  162.2600   -0.5300 C   0  0  0  0  0  0  0  0  0  0  0  0
  -39.5730  160.9160   -0.3830 C   0  0  0  0  0  0  0  0  0  0  0  0
  -39.6500  160.0660   -1.5010 C   0  0  0  0  0  0  0  0  0  0  0  0
  -39.3780  160.5430   -2.7880 C   0  0  0  0  0  0  0  0  0  0  0  0
  -39.0300  161.8750   -2.9270 C   0  0  0  0  0  0  0  0  0  0  0  0
  -37.6650  162.5450   -7.6810 C   0  0  0  0  0  0  0  0  0  0  0  0
  -37.3510  161.1670   -7.7880 C   0  0  0  0  0  0  0  0  0  0  0  0
  -36.7850  160.6250   -8.9430 C   0  0  0  0  0  0  0  0  0  0  0  0
  -36.5180  161.4460  -10.0250 C   0  0  0  0  0  0  0  0  0  0  0  0
  -36.8110  162.8080   -9.9460 C   0  0  0  0  0  0  0  0  0  0  0  0
  -37.3770  163.3900   -8.7880 C   0  0  0  0  0  0  0  0  0  0  0  0
  -37.0869  167.0108   -8.2351 H   0  0  0  0  0  0  0  0  0  0  0  0
  -36.1144  167.3477   -9.7073 H   0  0  0  0  0  0  0  0  0  0  0  0
  -37.8828  167.6633   -9.7073 H   0  0  0  0  0  0  0  0  0  0  0  0
  -39.2764  165.4460  -10.5911 H   0  0  0  0  0  0  0  0  0  0  0  0
  -38.1521  166.4559  -11.5621 H   0  0  0  0  0  0  0  0  0  0  0  0
  -37.9810  164.6677  -11.5621 H   0  0  0  0  0  0  0  0  0  0  0  0
  -38.4666  166.3794   -7.4855 H   0  0  0  0  0  0  0  0  0  0  0  0
  -38.9984  164.9058   -5.5633 H   0  0  0  0  0  0  0  0  0  0  0  0
  -38.8549  161.2312   -5.5418 H   0  0  0  0  0  0  0  0  0  0  0  0
  -38.4740  164.7830   -1.5600 H   0  0  0  0  0  0  0  0  0  0  0  0
  -39.1595  162.9335    0.3374 H   0  0  0  0  0  0  0  0  0  0  0  0
  -39.7917  160.5177    0.6188 H   0  0  0  0  0  0  0  0  0  0  0  0
  -39.9281  159.0109   -1.3616 H   0  0  0  0  0  0  0  0  0  0  0  0
  -39.4390  159.8791   -3.6629 H   0  0  0  0  0  0  0  0  0  0  0  0
  -37.5597  160.5046   -6.9349 H   0  0  0  0  0  0  0  0  0  0  0  0
  -36.5523  159.5511   -8.9932 H   0  0  0  0  0  0  0  0  0  0  0  0
  -36.0774  161.0272  -10.9418 H   0  0  0  0  0  0  0  0  0  0  0  0
  -36.5947  163.4499  -10.8127 H   0  0  0  0  0  0  0  0  0  0  0  0
  1  2  1  0
  2  3  1  0
  2  4  1  0
  4  5  2  0
  5  6  1  0
  6  7  2  0
  7  8  1  0
  8  9  2  0
  9 10  1  0
 10 11  2  0
 10 12  1  0
 12 13  1  0
 13 14  2  0
 14 15  1  0
 15 16  2  0
 16 17  1  0
 17 18  2  0
  7 19  1  0
 19 20  2  0
 20 21  1  0
 21 22  2  0
 22 23  1  0
 23 24  2  0
 24  4  1  0
 18  9  1  0
 24 19  1  0
 18 13  1  0
  1 25  1  0
  1 26  1  0
  1 27  1  0
  3 28  1  0
  3 29  1  0
  3 30  1  0
  5 31  1  0
  6 32  1  0
  8 33  1  0
 12 34  1  0
 14 35  1  0
 15 36  1  0
 16 37  1  0
 17 38  1  0
 20 39  1  0
 21 40  1  0
 22 41  1  0
 23 42  1  0
M  END
>  <meeko>  (5) 
{"is_sidechain": false}

>  <vina_affinity_kcal_mol>  (5) 
-8.025

>  <pose_rank>  (5) 
5

$$$$

     RDKit          3D

 42 45  0  0  0  0  0  0  0  0999 V2000
  -35.9460  158.1460    7.0630 C   0  0  0  0  0  0  0  0  0  0  0  0
  -35.3610  157.1860    6.1200 N   0  0  0  0  0  0  0  0  0  0  0  0
  -35.2010  157.7000    4.7600 C   0  0  0  0  0  0  0  0  0  0  0  0
  -36.0360  155.9360    6.2070 C   0  0  0  0  0  0  0  0  0  0  0  0
  -37.4340  155.8740    6.2960 C   0  0  0  0  0  0  0  0  0  0  0  0
  -38.0900  154.6520    6.4190 C   0  0  0  0  0  0  0  0  0  0  0  0
  -37.3630  153.4580    6.4710 C   0  0  0  0  0  0  0  0  0  0  0  0
  -38.1200  152.1980    6.5680 C   0  0  0  0  0  0  0  0  0  0  0  0
  -38.7020  151.5510    5.5470 C   0  0  0  0  0  0  0  0  0  0  0  0
  -38.7220  151.9470    4.0900 C   0  0  0  0  0  0  0  0  0  0  0  0
  -38.2030  152.9030    3.5510 O   0  0  0  0  0  0  0  0  0  0  0  0
  -39.4710  150.9580    3.4650 N   0  0  0  0  0  0  0  0  0  0  0  0
  -39.9100  149.9990    4.3720 C   0  0  0  0  0  0  0  0  0  0  0  0
  -40.6720  148.8840    4.0920 C   0  0  0  0  0  0  0  0  0  0  0  0
  -41.0000  148.0480    5.1620 C   0  0  0  0  0  0  0  0  0  0  0  0
  -40.5640  148.3430    6.4670 C   0  0  0  0  0  0  0  0  0  0  0  0
  -39.7910  149.4810    6.7270 C   0  0  0  0  0  0  0  0  0  0  0  0
  -39.4700  150.3060    5.6630 C   0  0  0  0  0  0  0  0  0  0  0  0
  -35.9470  153.4770    6.3860 C   0  0  0  0  0  0  0  0  0  0  0  0
  -35.1600  152.2980    6.4350 C   0  0  0  0  0  0  0  0  0  0  0  0
  -33.7680  152.3340    6.3410 C   0  0  0  0  0  0  0  0  0  0  0  0
  -33.1220  153.5500    6.1950 C   0  0  0  0  0  0  0  0  0  0  0  0
  -33.8700  154.7270    6.1490 C   0  0  0  0  0  0  0  0  0  0  0  0
  -35.2810  154.7260    6.2500 C   0  0  0  0  0  0  0  0  0  0  0  0
  -35.7454  157.8167    8.0932 H   0  0  0  0  0  0  0  0  0  0  0  0
  -35.4986  159.1378    6.9014 H   0  0  0  0  0  0  0  0  0  0  0  0
  -37.0326  158.2031    6.9014 H   0  0  0  0  0  0  0  0  0  0  0  0
  -34.8743  158.7496    4.8008 H   0  0  0  0  0  0  0  0  0  0  0  0
  -34.4466  157.1015    4.2282 H   0  0  0  0  0  0  0  0  0  0  0  0
  -36.1618  157.6354    4.2282 H   0  0  0  0  0  0  0  0  0  0  0  0
  -38.0208  156.8040    6.2683 H   0  0  0  0  0  0  0  0  0  0  0  0
  -39.1882  154.6253    6.4757 H   0  0  0  0  0  0  0  0  0  0  0  0
  -38.2167  151.7474    7.5668 H   0  0  0  0  0  0  0  0  0  0  0  0
  -39.6530  150.9650    2.4740 H   0  0  0  0  0  0  0  0  0  0  0  0
  -41.0077  148.6622    3.0682 H   0  0  0  0  0  0  0  0  0  0  0  0
  -41.6065  147.1481    4.9822 H   0  0  0  0  0  0  0  0  0  0  0  0
  -40.8342  147.6702    7.2943 H   0  0  0  0  0  0  0  0  0  0  0  0
  -39.4490  149.7126    7.7465 H   0  0  0  0  0  0  0  0  0  0  0  0
  -35.6619  151.3260    6.5506 H   0  0  0  0  0  0  0  0  0  0  0  0
  -33.1869  151.4009    6.3827 H   0  0  0  0  0  0  0  0  0  0  0  0
  -32.0255  153.5879    6.1157 H   0  0  0  0  0  0  0  0  0  0  0  0
  -33.3456  155.6866    6.0304 H   0  0  0  0  0  0  0  0  0  0  0  0
  1  2  1  0
  2  3  1  0
  2  4  1  0
  4  5  2  0
  5  6  1  0
  6  7  2  0
  7  8  1  0
  8  9  2  0
  9 10  1  0
 10 11  2  0
 10 12  1  0
 12 13  1  0
 13 14  2  0
 14 15  1  0
 15 16  2  0
 16 17  1  0
 17 18  2  0
  7 19  1  0
 19 20  2  0
 20 21  1  0
 21 22  2  0
 22 23  1  0
 23 24  2  0
 24  4  1  0
 18  9  1  0
 24 19  1  0
 18 13  1  0
  1 25  1  0
  1 26  1  0
  1 27  1  0
  3 28  1  0
  3 29  1  0
  3 30  1  0
  5 31  1  0
  6 32  1  0
  8 33  1  0
 12 34  1  0
 14 35  1  0
 15 36  1  0
 16 37  1  0
 17 38  1  0
 20 39  1  0
 21 40  1  0
 22 41  1  0
 23 42  1  0
M  END
>  <meeko>  (6) 
{"is_sidechain": false}

>  <vina_affinity_kcal_mol>  (6) 
-7.899

>  <pose_rank>  (6) 
6

$$$$

     RDKit          3D

 42 45  0  0  0  0  0  0  0  0999 V2000
  -36.7000  146.8590    3.2170 C   0  0  0  0  0  0  0  0  0  0  0  0
  -37.0310  148.1310    2.5620 N   0  0  0  0  0  0  0  0  0  0  0  0
  -37.5990  149.1380    3.4570 C   0  0  0  0  0  0  0  0  0  0  0  0
  -37.7870  147.8930    1.3790 C   0  0  0  0  0  0  0  0  0  0  0  0
  -39.1780  147.7200    1.4330 C   0  0  0  0  0  0  0  0  0  0  0  0
  -39.9100  147.4510    0.2800 C   0  0  0  0  0  0  0  0  0  0  0  0
  -39.2690  147.3320   -0.9570 C   0  0  0  0  0  0  0  0  0  0  0  0
  -40.1060  147.0800   -2.1420 C   0  0  0  0  0  0  0  0  0  0  0  0
  -40.4650  145.8740   -2.6080 C   0  0  0  0  0  0  0  0  0  0  0  0
  -40.1080  144.5200   -2.0430 C   0  0  0  0  0  0  0  0  0  0  0  0
  -39.4530  144.2510   -1.0570 O   0  0  0  0  0  0  0  0  0  0  0  0
  -40.7070  143.6090   -2.9040 N   0  0  0  0  0  0  0  0  0  0  0  0
  -41.3940  144.2500   -3.9290 C   0  0  0  0  0  0  0  0  0  0  0  0
  -42.1010  143.6510   -4.9520 C   0  0  0  0  0  0  0  0  0  0  0  0
  -42.7190  144.4920   -5.8800 C   0  0  0  0  0  0  0  0  0  0  0  0
  -42.6180  145.8910   -5.7640 C   0  0  0  0  0  0  0  0  0  0  0  0
  -41.8960  146.4760   -4.7170 C   0  0  0  0  0  0  0  0  0  0  0  0
  -41.2850  145.6380   -3.8020 C   0  0  0  0  0  0  0  0  0  0  0  0
  -37.8620  147.4970   -1.0540 C   0  0  0  0  0  0  0  0  0  0  0  0
  -37.1610  147.3860   -2.2810 C   0  0  0  0  0  0  0  0  0  0  0  0
  -35.7780  147.5610   -2.3600 C   0  0  0  0  0  0  0  0  0  0  0  0
  -35.0580  147.8530   -1.2140 C   0  0  0  0  0  0  0  0  0  0  0  0
  -35.7210  147.9620    0.0080 C   0  0  0  0  0  0  0  0  0  0  0  0
  -37.1190  147.7830    0.1240 C   0  0  0  0  0  0  0  0  0  0  0  0
  -36.7338  146.9891    4.3088 H   0  0  0  0  0  0  0  0  0  0  0  0
  -37.4283  146.0914    2.9164 H   0  0  0  0  0  0  0  0  0  0  0  0
  -35.6899  146.5437    2.9164 H   0  0  0  0  0  0  0  0  0  0  0  0
  -37.4296  148.8376    4.5015 H   0  0  0  0  0  0  0  0  0  0  0  0
  -37.1151  150.1083    3.2714 H   0  0  0  0  0  0  0  0  0  0  0  0
  -38.6797  149.2258    3.2714 H   0  0  0  0  0  0  0  0  0  0  0  0
  -39.6973  147.7980    2.3995 H   0  0  0  0  0  0  0  0  0  0  0  0
  -41.0017  147.3311    0.3425 H   0  0  0  0  0  0  0  0  0  0  0  0
  -40.4694  147.9590   -2.6946 H   0  0  0  0  0  0  0  0  0  0  0  0
  -40.6330  142.6130   -2.7710 H   0  0  0  0  0  0  0  0  0  0  0  0
  -42.1746  142.5565   -5.0330 H   0  0  0  0  0  0  0  0  0  0  0  0
  -43.2917  144.0557   -6.7117 H   0  0  0  0  0  0  0  0  0  0  0  0
  -43.1134  146.5338   -6.5065 H   0  0  0  0  0  0  0  0  0  0  0  0
  -41.8170  147.5693   -4.6248 H   0  0  0  0  0  0  0  0  0  0  0  0
  -37.7231  147.1552   -3.1979 H   0  0  0  0  0  0  0  0  0  0  0  0
  -35.2632  147.4674   -3.3276 H   0  0  0  0  0  0  0  0  0  0  0  0
  -33.9689  147.9982   -1.2671 H   0  0  0  0  0  0  0  0  0  0  0  0
  -35.1376  148.1948    0.9110 H   0  0  0  0  0  0  0  0  0  0  0  0
  1  2  1  0
  2  3  1  0
  2  4  1  0
  4  5  2  0
  5  6  1  0
  6  7  2  0
  7  8  1  0
  8  9  2  0
  9 10  1  0
 10 11  2  0
 10 12  1  0
 12 13  1  0
 13 14  2  0
 14 15  1  0
 15 16  2  0
 16 17  1  0
 17 18  2  0
  7 19  1  0
 19 20  2  0
 20 21  1  0
 21 22  2  0
 22 23  1  0
 23 24  2  0
 24  4  1  0
 18  9  1  0
 24 19  1  0
 18 13  1  0
  1 25  1  0
  1 26  1  0
  1 27  1  0
  3 28  1  0
  3 29  1  0
  3 30  1  0
  5 31  1  0
  6 32  1  0
  8 33  1  0
 12 34  1  0
 14 35  1  0
 15 36  1  0
 16 37  1  0
 17 38  1  0
 20 39  1  0
 21 40  1  0
 22 41  1  0
 23 42  1  0
M  END
>  <meeko>  (7) 
{"is_sidechain": false}

>  <vina_affinity_kcal_mol>  (7) 
-7.892

>  <pose_rank>  (7) 
7

$$$$

     RDKit          3D

 42 45  0  0  0  0  0  0  0  0999 V2000
  -36.1700  147.6940    8.9730 C   0  0  0  0  0  0  0  0  0  0  0  0
  -35.7730  148.0220    7.5980 N   0  0  0  0  0  0  0  0  0  0  0  0
  -34.4680  147.4920    7.2060 C   0  0  0  0  0  0  0  0  0  0  0  0
  -35.9480  149.4130    7.3530 C   0  0  0  0  0  0  0  0  0  0  0  0
  -35.2340  150.3720    8.0870 C   0  0  0  0  0  0  0  0  0  0  0  0
  -35.4330  151.7320    7.8730 C   0  0  0  0  0  0  0  0  0  0  0  0
  -36.3650  152.1730    6.9270 C   0  0  0  0  0  0  0  0  0  0  0  0
  -36.5040  153.6250    6.7250 C   0  0  0  0  0  0  0  0  0  0  0  0
  -35.6910  154.3970    5.9890 C   0  0  0  0  0  0  0  0  0  0  0  0
  -34.4700  153.9750    5.2070 C   0  0  0  0  0  0  0  0  0  0  0  0
  -33.9960  152.8650    5.0700 O   0  0  0  0  0  0  0  0  0  0  0  0
  -33.9840  155.1500    4.6490 N   0  0  0  0  0  0  0  0  0  0  0  0
  -34.7690  156.2440    4.9950 C   0  0  0  0  0  0  0  0  0  0  0  0
  -34.5750  157.5560    4.6130 C   0  0  0  0  0  0  0  0  0  0  0  0
  -35.4930  158.5000    5.0790 C   0  0  0  0  0  0  0  0  0  0  0  0
  -36.5680  158.1150    5.9020 C   0  0  0  0  0  0  0  0  0  0  0  0
  -36.7440  156.7780    6.2760 C   0  0  0  0  0  0  0  0  0  0  0  0
  -35.8310  155.8470    5.8130 C   0  0  0  0  0  0  0  0  0  0  0  0
  -37.1110  151.2360    6.1650 C   0  0  0  0  0  0  0  0  0  0  0  0
  -38.0690  151.6260    5.1950 C   0  0  0  0  0  0  0  0  0  0  0  0
  -38.7870  150.6910    4.4480 C   0  0  0  0  0  0  0  0  0  0  0  0
  -38.5660  149.3380    4.6490 C   0  0  0  0  0  0  0  0  0  0  0  0
  -37.6340  148.9250    5.6000 C   0  0  0  0  0  0  0  0  0  0  0  0
  -36.8960  149.8460    6.3800 C   0  0  0  0  0  0  0  0  0  0  0  0
  -35.5204  148.2307    9.6801 H   0  0  0  0  0  0  0  0  0  0  0  0
  -37.2156  147.9952    9.1345 H   0  0  0  0  0  0  0  0  0  0  0  0
  -36.0714  146.6104    9.1345 H   0  0  0  0  0  0  0  0  0  0  0  0
  -33.8831  147.2545    8.1068 H   0  0  0  0  0  0  0  0  0  0  0  0
  -34.6075  146.5793    6.6081 H   0  0  0  0  0  0  0  0  0  0  0  0
  -33.9316  148.2435    6.6081 H   0  0  0  0  0  0  0  0  0  0  0  0
  -34.5058  150.0435    8.8432 H   0  0  0  0  0  0  0  0  0  0  0  0
  -34.8534  152.4662    8.4517 H   0  0  0  0  0  0  0  0  0  0  0  0
  -37.3506  154.1209    7.2224 H   0  0  0  0  0  0  0  0  0  0  0  0
  -33.1600  155.1700    4.0680 H   0  0  0  0  0  0  0  0  0  0  0  0
  -33.7323  157.8462    3.9683 H   0  0  0  0  0  0  0  0  0  0  0  0
  -35.3744  159.5572    4.7994 H   0  0  0  0  0  0  0  0  0  0  0  0
  -37.2795  158.8755    6.2561 H   0  0  0  0  0  0  0  0  0  0  0  0
  -37.5836  156.4760    6.9193 H   0  0  0  0  0  0  0  0  0  0  0  0
  -38.2517  152.6975    5.0263 H   0  0  0  0  0  0  0  0  0  0  0  0
  -39.5243  151.0263    3.7037 H   0  0  0  0  0  0  0  0  0  0  0  0
  -39.1231  148.5936    4.0612 H   0  0  0  0  0  0  0  0  0  0  0  0
  -37.4670  147.8480    5.7487 H   0  0  0  0  0  0  0  0  0  0  0  0
  1  2  1  0
  2  3  1  0
  2  4  1  0
  4  5  2  0
  5  6  1  0
  6  7  2  0
  7  8  1  0
  8  9  2  0
  9 10  1  0
 10 11  2  0
 10 12  1  0
 12 13  1  0
 13 14  2  0
 14 15  1  0
 15 16  2  0
 16 17  1  0
 17 18  2  0
  7 19  1  0
 19 20  2  0
 20 21  1  0
 21 22  2  0
 22 23  1  0
 23 24  2  0
 24  4  1  0
 18  9  1  0
 24 19  1  0
 18 13  1  0
  1 25  1  0
  1 26  1  0
  1 27  1  0
  3 28  1  0
  3 29  1  0
  3 30  1  0
  5 31  1  0
  6 32  1  0
  8 33  1  0
 12 34  1  0
 14 35  1  0
 15 36  1  0
 16 37  1  0
 17 38  1  0
 20 39  1  0
 21 40  1  0
 22 41  1  0
 23 42  1  0
M  END
>  <meeko>  (8) 
{"is_sidechain": false}

>  <vina_affinity_kcal_mol>  (8) 
-7.891

>  <pose_rank>  (8) 
8

$$$$

     RDKit          3D

 42 45  0  0  0  0  0  0  0  0999 V2000
  -38.6760  158.7060   -2.0130 C   0  0  0  0  0  0  0  0  0  0  0  0
  -39.1100  160.0890   -1.7830 N   0  0  0  0  0  0  0  0  0  0  0  0
  -40.3980  160.2100   -1.1000 C   0  0  0  0  0  0  0  0  0  0  0  0
  -39.0000  160.8460   -2.9830 C   0  0  0  0  0  0  0  0  0  0  0  0
  -39.0130  160.2180   -4.2380 C   0  0  0  0  0  0  0  0  0  0  0  0
  -38.8690  160.9560   -5.4090 C   0  0  0  0  0  0  0  0  0  0  0  0
  -38.6910  162.3430   -5.3570 C   0  0  0  0  0  0  0  0  0  0  0  0
  -38.5770  163.0680   -6.6340 C   0  0  0  0  0  0  0  0  0  0  0  0
  -37.6840  162.8170   -7.6020 C   0  0  0  0  0  0  0  0  0  0  0  0
  -36.6080  161.7580   -7.6180 C   0  0  0  0  0  0  0  0  0  0  0  0
  -36.3510  160.9170   -6.7810 O   0  0  0  0  0  0  0  0  0  0  0  0
  -35.9520  161.9380   -8.8290 N   0  0  0  0  0  0  0  0  0  0  0  0
  -36.5050  162.9850   -9.5600 C   0  0  0  0  0  0  0  0  0  0  0  0
  -36.1000  163.4320  -10.8010 C   0  0  0  0  0  0  0  0  0  0  0  0
  -36.8030  164.5040  -11.3550 C   0  0  0  0  0  0  0  0  0  0  0  0
  -37.8790  165.0940  -10.6650 C   0  0  0  0  0  0  0  0  0  0  0  0
  -38.2710  164.6230   -9.4070 C   0  0  0  0  0  0  0  0  0  0  0  0
  -37.5700  163.5610   -8.8620 C   0  0  0  0  0  0  0  0  0  0  0  0
  -38.6690  163.0160   -4.1080 C   0  0  0  0  0  0  0  0  0  0  0  0
  -38.4910  164.4180   -3.9970 C   0  0  0  0  0  0  0  0  0  0  0  0
  -38.4810  165.0660   -2.7600 C   0  0  0  0  0  0  0  0  0  0  0  0
  -38.6500  164.3300   -1.6000 C   0  0  0  0  0  0  0  0  0  0  0  0
  -38.8220  162.9480   -1.6790 C   0  0  0  0  0  0  0  0  0  0  0  0
  -38.8280  162.2600   -2.9140 C   0  0  0  0  0  0  0  0  0  0  0  0
  -38.5189  158.2054   -1.0462 H   0  0  0  0  0  0  0  0  0  0  0  0
  -39.4488  158.1691   -2.5826 H   0  0  0  0  0  0  0  0  0  0  0  0
  -37.7350  158.7069   -2.5826 H   0  0  0  0  0  0  0  0  0  0  0  0
  -40.2387  160.1950   -0.0117 H   0  0  0  0  0  0  0  0  0  0  0  0
  -40.8779  161.1572   -1.3874 H   0  0  0  0  0  0  0  0  0  0  0  0
  -41.0459  159.3688   -1.3874 H   0  0  0  0  0  0  0  0  0  0  0  0
  -39.1388  159.1268   -4.2969 H   0  0  0  0  0  0  0  0  0  0  0  0
  -38.8953  160.4452   -6.3828 H   0  0  0  0  0  0  0  0  0  0  0  0
  -39.2881  163.8888   -6.8092 H   0  0  0  0  0  0  0  0  0  0  0  0
  -35.1740  161.3630   -9.1120 H   0  0  0  0  0  0  0  0  0  0  0  0
  -35.2583  162.9634  -11.3320 H   0  0  0  0  0  0  0  0  0  0  0  0
  -36.5125  164.8921  -12.3424 H   0  0  0  0  0  0  0  0  0  0  0  0
  -38.4190  165.9368  -11.1211 H   0  0  0  0  0  0  0  0  0  0  0  0
  -39.1116  165.0832   -8.8670 H   0  0  0  0  0  0  0  0  0  0  0  0
  -38.3568  165.0131   -4.9123 H   0  0  0  0  0  0  0  0  0  0  0  0
  -38.3396  166.1556   -2.7078 H   0  0  0  0  0  0  0  0  0  0  0  0
  -38.6487  164.8321   -0.6213 H   0  0  0  0  0  0  0  0  0  0  0  0
  -38.9574  162.3748   -0.7500 H   0  0  0  0  0  0  0  0  0  0  0  0
  1  2  1  0
  2  3  1  0
  2  4  1  0
  4  5  2  0
  5  6  1  0
  6  7  2  0
  7  8  1  0
  8  9  2  0
  9 10  1  0
 10 11  2  0
 10 12  1  0
 12 13  1  0
 13 14  2  0
 14 15  1  0
 15 16  2  0
 16 17  1  0
 17 18  2  0
  7 19  1  0
 19 20  2  0
 20 21  1  0
 21 22  2  0
 22 23  1  0
 23 24  2  0
 24  4  1  0
 18  9  1  0
 24 19  1  0
 18 13  1  0
  1 25  1  0
  1 26  1  0
  1 27  1  0
  3 28  1  0
  3 29  1  0
  3 30  1  0
  5 31  1  0
  6 32  1  0
  8 33  1  0
 12 34  1  0
 14 35  1  0
 15 36  1  0
 16 37  1  0
 17 38  1  0
 20 39  1  0
 21 40  1  0
 22 41  1  0
 23 42  1  0
M  END
>  <meeko>  (9) 
{"is_sidechain": false}

>  <vina_affinity_kcal_mol>  (9) 
-7.823

>  <pose_rank>  (9) 
9

$$$$

     RDKit          3D

 42 45  0  0  0  0  0  0  0  0999 V2000
  -38.6990  146.4740    6.5520 C   0  0  0  0  0  0  0  0  0  0  0  0
  -37.8590  147.0170    5.4780 N   0  0  0  0  0  0  0  0  0  0  0  0
  -36.6430  146.2470    5.2170 C   0  0  0  0  0  0  0  0  0  0  0  0
  -37.6490  148.4110    5.6730 C   0  0  0  0  0  0  0  0  0  0  0  0
  -36.9150  148.8850    6.7710 C   0  0  0  0  0  0  0  0  0  0  0  0
  -36.7420  150.2500    6.9810 C   0  0  0  0  0  0  0  0  0  0  0  0
  -37.3120  151.1800    6.1060 C   0  0  0  0  0  0  0  0  0  0  0  0
  -37.0630  152.6080    6.3660 C   0  0  0  0  0  0  0  0  0  0  0  0
  -35.9350  153.2750    6.0780 C   0  0  0  0  0  0  0  0  0  0  0  0
  -34.6810  152.7360    5.4330 C   0  0  0  0  0  0  0  0  0  0  0  0
  -34.4500  151.6140    5.0290 O   0  0  0  0  0  0  0  0  0  0  0  0
  -33.8150  153.8210    5.3830 N   0  0  0  0  0  0  0  0  0  0  0  0
  -34.3970  154.9640    5.9200 C   0  0  0  0  0  0  0  0  0  0  0  0
  -33.8200  156.2130    6.0270 C   0  0  0  0  0  0  0  0  0  0  0  0
  -34.5900  157.2270    6.6030 C   0  0  0  0  0  0  0  0  0  0  0  0
  -35.9000  156.9700    7.0510 C   0  0  0  0  0  0  0  0  0  0  0  0
  -36.4630  155.6940    6.9320 C   0  0  0  0  0  0  0  0  0  0  0  0
  -35.6950  154.6940    6.3610 C   0  0  0  0  0  0  0  0  0  0  0  0
  -38.0650  150.7430    4.9850 C   0  0  0  0  0  0  0  0  0  0  0  0
  -38.6660  151.6420    4.0680 C   0  0  0  0  0  0  0  0  0  0  0  0
  -39.3950  151.1940    2.9650 C   0  0  0  0  0  0  0  0  0  0  0  0
  -39.5430  149.8350    2.7470 C   0  0  0  0  0  0  0  0  0  0  0  0
  -38.9680  148.9270    3.6370 C   0  0  0  0  0  0  0  0  0  0  0  0
  -38.2300  149.3470    4.7680 C   0  0  0  0  0  0  0  0  0  0  0  0
  -38.2715  146.7503    7.5271 H   0  0  0  0  0  0  0  0  0  0  0  0
  -39.7151  146.8866    6.4669 H   0  0  0  0  0  0  0  0  0  0  0  0
  -38.7400  145.3781    6.4669 H   0  0  0  0  0  0  0  0  0  0  0  0
  -36.1819  145.9550    6.1720 H   0  0  0  0  0  0  0  0  0  0  0  0
  -36.8969  145.3447    4.6414 H   0  0  0  0  0  0  0  0  0  0  0  0
  -35.9359  146.8623    4.6414 H   0  0  0  0  0  0  0  0  0  0  0  0
  -36.4699  148.1674    7.4760 H   0  0  0  0  0  0  0  0  0  0  0  0
  -36.1527  150.5997    7.8414 H   0  0  0  0  0  0  0  0  0  0  0  0
  -37.8752  153.1794    6.8391 H   0  0  0  0  0  0  0  0  0  0  0  0
  -32.8870  153.7520    4.9970 H   0  0  0  0  0  0  0  0  0  0  0  0
  -32.7958  156.4027    5.6733 H   0  0  0  0  0  0  0  0  0  0  0  0
  -34.1680  158.2374    6.7076 H   0  0  0  0  0  0  0  0  0  0  0  0
  -36.4889  157.7830    7.5006 H   0  0  0  0  0  0  0  0  0  0  0  0
  -37.4860  155.4918    7.2821 H   0  0  0  0  0  0  0  0  0  0  0  0
  -38.5546  152.7242    4.2305 H   0  0  0  0  0  0  0  0  0  0  0  0
  -39.8497  151.9175    2.2723 H   0  0  0  0  0  0  0  0  0  0  0  0
  -40.1107  149.4729    1.8771 H   0  0  0  0  0  0  0  0  0  0  0  0
  -39.0928  147.8497    3.4530 H   0  0  0  0  0  0  0  0  0  0  0  0
  1  2  1  0
  2  3  1  0
  2  4  1  0
  4  5  2  0
  5  6  1  0
  6  7  2  0
  7  8  1  0
  8  9  2  0
  9 10  1  0
 10 11  2  0
 10 12  1  0
 12 13  1  0
 13 14  2  0
 14 15  1  0
 15 16  2  0
 16 17  1  0
 17 18  2  0
  7 19  1  0
 19 20  2  0
 20 21  1  0
 21 22  2  0
 22 23  1  0
 23 24  2  0
 24  4  1  0
 18  9  1  0
 24 19  1  0
 18 13  1  0
  1 25  1  0
  1 26  1  0
  1 27  1  0
  3 28  1  0
  3 29  1  0
  3 30  1  0
  5 31  1  0
  6 32  1  0
  8 33  1  0
 12 34  1  0
 14 35  1  0
 15 36  1  0
 16 37  1  0
 17 38  1  0
 20 39  1  0
 21 40  1  0
 22 41  1  0
 23 42  1  0
M  END
>  <meeko>  (10) 
{"is_sidechain": false}

>  <vina_affinity_kcal_mol>  (10) 
-7.29

>  <pose_rank>  (10) 
10

$$$$
