
     RDKit          3D

 73 77  0  0  0  0  0  0  0  0999 V2000
   11.6969    1.1142   -0.6109 C   0  0  0  0  0  0  0  0  0  0  0  0
   10.2881    0.8865   -0.5450 O   0  0  0  0  0  0  0  0  0  0  0  0
    9.5853    1.4975   -1.5302 C   0  0  0  0  0  0  0  0  0  0  0  0
   10.0531    2.1900   -2.4202 O   0  0  0  0  0  0  0  0  0  0  0  0
    8.1306    1.2140   -1.3949 C   0  0  0  0  0  0  0  0  0  0  0  0
    7.6103    0.4203   -0.3502 C   0  0  0  0  0  0  0  0  0  0  0  0
    6.2327    0.1702   -0.2456 C   0  0  0  0  0  0  0  0  0  0  0  0
    5.3813    0.7081   -1.1957 C   0  0  0  0  0  0  0  0  0  0  0  0
    5.9154    1.5078   -2.2151 C   0  0  0  0  0  0  0  0  0  0  0  0
    7.2656    1.7725   -2.3439 C   0  0  0  0  0  0  0  0  0  0  0  0
    4.9091    1.9970   -3.0387 N   0  0  0  0  0  0  0  0  0  0  0  0
    3.6650    1.5696   -2.6186 C   0  0  0  0  0  0  0  0  0  0  0  0
    2.5884    1.8543   -3.1120 O   0  0  0  0  0  0  0  0  0  0  0  0
    3.9206    0.6836   -1.4181 C   0  0  0  0  0  0  0  0  0  0  0  0
    2.8891    0.0604   -0.7958 C   0  0  0  0  0  0  0  0  0  0  0  0
    1.5595    0.2571   -1.1618 N   0  0  0  0  0  0  0  0  0  0  0  0
    0.3251   -0.3021   -0.7888 C   0  0  0  0  0  0  0  0  0  0  0  0
   -0.8354    0.4140   -1.1103 C   0  0  0  0  0  0  0  0  0  0  0  0
   -2.1155   -0.0346   -0.7439 C   0  0  0  0  0  0  0  0  0  0  0  0
   -2.2989   -1.2281   -0.0397 C   0  0  0  0  0  0  0  0  0  0  0  0
   -3.6075   -1.6904    0.3715 N   0  0  0  0  0  0  0  0  0  0  0  0
   -3.6661   -2.8649    1.2420 C   0  0  0  0  0  0  0  0  0  0  0  0
   -4.7965   -1.1124   -0.1259 C   0  0  0  0  0  0  0  0  0  0  0  0
   -4.8682   -0.5020   -1.1952 O   0  0  0  0  0  0  0  0  0  0  0  0
   -6.0469   -1.2891    0.7706 C   0  0  0  0  0  0  0  0  0  0  0  0
   -7.0372   -0.2114    0.5818 N   0  0  0  0  0  0  0  0  0  0  0  0
   -8.3209   -0.5406    1.2278 C   0  0  0  0  0  0  0  0  0  0  0  0
   -9.2164    0.6863    1.5514 C   0  0  0  0  0  0  0  0  0  0  0  0
   -8.9990    1.8755    0.7104 N   0  0  0  0  0  0  0  0  0  0  0  0
   -9.4519    1.6304   -0.6614 C   0  0  0  0  0  0  0  0  0  0  0  0
   -7.5636    2.2419    0.7266 C   0  0  0  0  0  0  0  0  0  0  0  0
   -6.5574    1.0997    1.0389 C   0  0  0  0  0  0  0  0  0  0  0  0
   -1.1329   -1.9299    0.3022 C   0  0  0  0  0  0  0  0  0  0  0  0
    0.1478   -1.4759   -0.0660 C   0  0  0  0  0  0  0  0  0  0  0  0
    3.1889   -0.8005    0.3651 C   0  0  0  0  0  0  0  0  0  0  0  0
    3.6795   -2.1035    0.1789 C   0  0  0  0  0  0  0  0  0  0  0  0
    3.9748   -2.9088    1.2805 C   0  0  0  0  0  0  0  0  0  0  0  0
    3.7834   -2.4195    2.5724 C   0  0  0  0  0  0  0  0  0  0  0  0
    3.2941   -1.1277    2.7667 C   0  0  0  0  0  0  0  0  0  0  0  0
    2.9974   -0.3195    1.6678 C   0  0  0  0  0  0  0  0  0  0  0  0
   12.1054    0.7206   -1.5470 H   0  0  0  0  0  0  0  0  0  0  0  0
   12.1651    0.5823    0.2219 H   0  0  0  0  0  0  0  0  0  0  0  0
   11.9180    2.1813   -0.5086 H   0  0  0  0  0  0  0  0  0  0  0  0
    8.2718   -0.0095    0.4000 H   0  0  0  0  0  0  0  0  0  0  0  0
    5.8712   -0.4284    0.5825 H   0  0  0  0  0  0  0  0  0  0  0  0
    7.6426    2.3960   -3.1487 H   0  0  0  0  0  0  0  0  0  0  0  0
    5.0359    2.6120   -3.8285 H   0  0  0  0  0  0  0  0  0  0  0  0
    1.4587    0.9234   -1.9363 H   0  0  0  0  0  0  0  0  0  0  0  0
   -0.7610    1.3550   -1.6528 H   0  0  0  0  0  0  0  0  0  0  0  0
   -2.9486    0.6045   -1.0198 H   0  0  0  0  0  0  0  0  0  0  0  0
   -3.1657   -3.7073    0.7533 H   0  0  0  0  0  0  0  0  0  0  0  0
   -3.1876   -2.6319    2.1982 H   0  0  0  0  0  0  0  0  0  0  0  0
   -4.6862   -3.1991    1.4373 H   0  0  0  0  0  0  0  0  0  0  0  0
   -6.4970   -2.2475    0.4846 H   0  0  0  0  0  0  0  0  0  0  0  0
   -5.7518   -1.3276    1.8254 H   0  0  0  0  0  0  0  0  0  0  0  0
   -8.1596   -1.0868    2.1664 H   0  0  0  0  0  0  0  0  0  0  0  0
   -8.8700   -1.2098    0.5544 H   0  0  0  0  0  0  0  0  0  0  0  0
  -10.2721    0.3883    1.5276 H   0  0  0  0  0  0  0  0  0  0  0  0
   -9.0243    0.9845    2.5912 H   0  0  0  0  0  0  0  0  0  0  0  0
   -9.3706    2.5480   -1.2552 H   0  0  0  0  0  0  0  0  0  0  0  0
  -10.5117    1.3518   -0.6696 H   0  0  0  0  0  0  0  0  0  0  0  0
   -8.8875    0.8443   -1.1735 H   0  0  0  0  0  0  0  0  0  0  0  0
   -7.4313    3.0165    1.4926 H   0  0  0  0  0  0  0  0  0  0  0  0
   -7.2826    2.7205   -0.2209 H   0  0  0  0  0  0  0  0  0  0  0  0
   -6.3779    1.0694    2.1223 H   0  0  0  0  0  0  0  0  0  0  0  0
   -5.6032    1.3610    0.5677 H   0  0  0  0  0  0  0  0  0  0  0  0
   -1.1645   -2.8598    0.8604 H   0  0  0  0  0  0  0  0  0  0  0  0
    0.9876   -2.0976    0.2148 H   0  0  0  0  0  0  0  0  0  0  0  0
    3.8239   -2.4938   -0.8262 H   0  0  0  0  0  0  0  0  0  0  0  0
    4.3505   -3.9176    1.1301 H   0  0  0  0  0  0  0  0  0  0  0  0
    4.0107   -3.0477    3.4302 H   0  0  0  0  0  0  0  0  0  0  0  0
    3.1381   -0.7497    3.7739 H   0  0  0  0  0  0  0  0  0  0  0  0
    2.6061    0.6833    1.8257 H   0  0  0  0  0  0  0  0  0  0  0  0
  1  2  1  0
  2  3  1  0
  3  4  2  0
  3  5  1  0
  5  6  1  0
  6  7  2  0
  7  8  1  0
  8  9  2  0
  9 10  1  0
  9 11  1  0
 11 12  1  0
 12 13  2  0
 12 14  1  0
 14 15  2  0
 15 16  1  0
 16 17  1  0
 17 18  1  0
 18 19  2  0
 19 20  1  0
 20 21  1  0
 21 22  1  0
 21 23  1  0
 23 24  2  0
 23 25  1  0
 25 26  1  0
 26 27  1  0
 27 28  1  0
 28 29  1  0
 29 30  1  0
 29 31  1  0
 31 32  1  0
 20 33  2  0
 33 34  1  0
 15 35  1  0
 35 36  2  0
 36 37  1  0
 37 38  2  0
 38 39  1  0
 39 40  2  0
 10  5  2  0
 34 17  2  0
 40 35  1  0
 14  8  1  0
 32 26  1  0
  1 41  1  0
  1 42  1  0
  1 43  1  0
  6 44  1  0
  7 45  1  0
 10 46  1  0
 11 47  1  0
 16 48  1  0
 18 49  1  0
 19 50  1  0
 22 51  1  0
 22 52  1  0
 22 53  1  0
 25 54  1  0
 25 55  1  0
 27 56  1  0
 27 57  1  0
 28 58  1  0
 28 59  1  0
 30 60  1  0
 30 61  1  0
 30 62  1  0
 31 63  1  0
 31 64  1  0
 32 65  1  0
 32 66  1  0
 33 67  1  0
 34 68  1  0
 36 69  1  0
 37 70  1  0
 38 71  1  0
 39 72  1  0
 40 73  1  0
M  END
$$$$
