
     RDKit          3D

 73 77  0  0  0  0  0  0  0  0999 V2000
  -34.1800  156.8350    6.6630 C   0  0  0  0  0  0  0  0  0  0  0  0
  -34.6550  155.7210    7.4220 O   0  0  0  0  0  0  0  0  0  0  0  0
  -35.9660  155.4390    7.2250 C   0  0  0  0  0  0  0  0  0  0  0  0
  -36.8980  156.2070    7.4050 O   0  0  0  0  0  0  0  0  0  0  0  0
  -36.1410  154.0400    6.7500 C   0  0  0  0  0  0  0  0  0  0  0  0
  -37.2630  153.6340    5.9950 C   0  0  0  0  0  0  0  0  0  0  0  0
  -37.4010  152.3070    5.5580 C   0  0  0  0  0  0  0  0  0  0  0  0
  -36.4200  151.3880    5.8890 C   0  0  0  0  0  0  0  0  0  0  0  0
  -35.3060  151.8140    6.6230 C   0  0  0  0  0  0  0  0  0  0  0  0
  -35.1400  153.1130    7.0670 C   0  0  0  0  0  0  0  0  0  0  0  0
  -34.4100  150.7700    6.8150 N   0  0  0  0  0  0  0  0  0  0  0  0
  -34.8590  149.6080    6.2190 C   0  0  0  0  0  0  0  0  0  0  0  0
  -34.2850  148.5340    6.1830 O   0  0  0  0  0  0  0  0  0  0  0  0
  -36.2050  149.9520    5.6170 C   0  0  0  0  0  0  0  0  0  0  0  0
  -36.9400  148.9960    4.9940 C   0  0  0  0  0  0  0  0  0  0  0  0
  -36.4760  147.6960    4.8010 N   0  0  0  0  0  0  0  0  0  0  0  0
  -35.6230  147.0640    3.8800 C   0  0  0  0  0  0  0  0  0  0  0  0
  -35.0620  147.8530    2.8680 C   0  0  0  0  0  0  0  0  0  0  0  0
  -34.2320  147.3110    1.8730 C   0  0  0  0  0  0  0  0  0  0  0  0
  -33.9170  145.9500    1.8430 C   0  0  0  0  0  0  0  0  0  0  0  0
  -33.0880  145.3700    0.8080 N   0  0  0  0  0  0  0  0  0  0  0  0
  -32.2070  144.2640    1.1890 C   0  0  0  0  0  0  0  0  0  0  0  0
  -33.0350  145.9060   -0.4980 C   0  0  0  0  0  0  0  0  0  0  0  0
  -32.2020  146.7390   -0.8630 O   0  0  0  0  0  0  0  0  0  0  0  0
  -34.1100  145.3770   -1.4790 C   0  0  0  0  0  0  0  0  0  0  0  0
  -35.4210  146.0260   -1.2860 N   0  0  0  0  0  0  0  0  0  0  0  0
  -35.4950  147.3120   -2.0060 C   0  0  0  0  0  0  0  0  0  0  0  0
  -36.9370  147.7980   -2.3130 C   0  0  0  0  0  0  0  0  0  0  0  0
  -37.9870  147.2990   -1.4080 N   0  0  0  0  0  0  0  0  0  0  0  0
  -37.8390  147.8830   -0.0720 C   0  0  0  0  0  0  0  0  0  0  0  0
  -37.9250  145.8210   -1.3410 C   0  0  0  0  0  0  0  0  0  0  0  0
  -36.5520  145.1660   -1.6590 C   0  0  0  0  0  0  0  0  0  0  0  0
  -34.5010  145.1580    2.8440 C   0  0  0  0  0  0  0  0  0  0  0  0
  -35.3340  145.7050    3.8390 C   0  0  0  0  0  0  0  0  0  0  0  0
  -38.2490  149.3770    4.4300 C   0  0  0  0  0  0  0  0  0  0  0  0
  -39.3990  149.3760    5.2360 C   0  0  0  0  0  0  0  0  0  0  0  0
  -40.6340  149.7510    4.7030 C   0  0  0  0  0  0  0  0  0  0  0  0
  -40.7290  150.1260    3.3630 C   0  0  0  0  0  0  0  0  0  0  0  0
  -39.5920  150.1270    2.5540 C   0  0  0  0  0  0  0  0  0  0  0  0
  -38.3550  149.7540    3.0840 C   0  0  0  0  0  0  0  0  0  0  0  0
  -33.8421  157.6274    7.3471 H   0  0  0  0  0  0  0  0  0  0  0  0
  -33.3400  156.5152    6.0289 H   0  0  0  0  0  0  0  0  0  0  0  0
  -34.9923  157.2198    6.0289 H   0  0  0  0  0  0  0  0  0  0  0  0
  -38.0418  154.3696    5.7451 H   0  0  0  0  0  0  0  0  0  0  0  0
  -38.2742  152.0025    4.9624 H   0  0  0  0  0  0  0  0  0  0  0  0
  -34.2538  153.4077    7.6482 H   0  0  0  0  0  0  0  0  0  0  0  0
  -33.5230  150.8290    7.2930 H   0  0  0  0  0  0  0  0  0  0  0  0
  -36.9110  147.0250    5.4430 H   0  0  0  0  0  0  0  0  0  0  0  0
  -35.2783  148.9314    2.8519 H   0  0  0  0  0  0  0  0  0  0  0  0
  -33.8198  147.9743    1.0983 H   0  0  0  0  0  0  0  0  0  0  0  0
  -32.1545  144.1981    2.2858 H   0  0  0  0  0  0  0  0  0  0  0  0
  -32.6049  143.3220    0.7837 H   0  0  0  0  0  0  0  0  0  0  0  0
  -31.1998  144.4412    0.7837 H   0  0  0  0  0  0  0  0  0  0  0  0
  -33.7713  145.5657   -2.5084 H   0  0  0  0  0  0  0  0  0  0  0  0
  -34.2382  144.3018   -1.2855 H   0  0  0  0  0  0  0  0  0  0  0  0
  -34.9980  148.0779   -1.3925 H   0  0  0  0  0  0  0  0  0  0  0  0
  -35.0054  147.1539   -2.9783 H   0  0  0  0  0  0  0  0  0  0  0  0
  -36.9411  148.8968   -2.2617 H   0  0  0  0  0  0  0  0  0  0  0  0
  -37.1829  147.3962   -3.3070 H   0  0  0  0  0  0  0  0  0  0  0  0
  -38.0342  147.1127    0.6886 H   0  0  0  0  0  0  0  0  0  0  0  0
  -36.8152  148.2667    0.0491 H   0  0  0  0  0  0  0  0  0  0  0  0
  -38.5565  148.7080    0.0491 H   0  0  0  0  0  0  0  0  0  0  0  0
  -38.2095  145.5211   -0.3216 H   0  0  0  0  0  0  0  0  0  0  0  0
  -38.6046  145.4666   -2.1300 H   0  0  0  0  0  0  0  0  0  0  0  0
  -36.4748  144.2200   -1.1030 H   0  0  0  0  0  0  0  0  0  0  0  0
  -36.5032  145.0004   -2.7454 H   0  0  0  0  0  0  0  0  0  0  0  0
  -34.3017  144.0762    2.8515 H   0  0  0  0  0  0  0  0  0  0  0  0
  -35.7663  145.0409    4.6020 H   0  0  0  0  0  0  0  0  0  0  0  0
  -39.3266  149.0783    6.2925 H   0  0  0  0  0  0  0  0  0  0  0  0
  -41.5312  149.7507    5.3394 H   0  0  0  0  0  0  0  0  0  0  0  0
  -41.7018  150.4215    2.9432 H   0  0  0  0  0  0  0  0  0  0  0  0
  -39.6702  150.4220    1.4972 H   0  0  0  0  0  0  0  0  0  0  0  0
  -37.4609  149.7560    2.4432 H   0  0  0  0  0  0  0  0  0  0  0  0
  1  2  1  0
  2  3  1  0
  3  4  2  0
  3  5  1  0
  5  6  1  0
  6  7  2  0
  7  8  1  0
  8  9  2  0
  9 10  1  0
  9 11  1  0
 11 12  1  0
 12 13  2  0
 12 14  1  0
 14 15  2  0
 15 16  1  0
 16 17  1  0
 17 18  1  0
 18 19  2  0
 19 20  1  0
 20 21  1  0
 21 22  1  0
 21 23  1  0
 23 24  2  0
 23 25  1  0
 25 26  1  0
 26 27  1  0
 27 28  1  0
 28 29  1  0
 29 30  1  0
 29 31  1  0
 31 32  1  0
 20 33  2  0
 33 34  1  0
 15 35  1  0
 35 36  2  0
 36 37  1  0
 37 38  2  0
 38 39  1  0
 39 40  2  0
 10  5  2  0
 34 17  2  0
 40 35  1  0
 14  8  1  0
 32 26  1  0
  1 41  1  0
  1 42  1  0
  1 43  1  0
  6 44  1  0
  7 45  1  0
 10 46  1  0
 11 47  1  0
 16 48  1  0
 18 49  1  0
 19 50  1  0
 22 51  1  0
 22 52  1  0
 22 53  1  0
 25 54  1  0
 25 55  1  0
 27 56  1  0
 27 57  1  0
 28 58  1  0
 28 59  1  0
 30 60  1  0
 30 61  1  0
 30 62  1  0
 31 63  1  0
 31 64  1  0
 32 65  1  0
 32 66  1  0
 33 67  1  0
 34 68  1  0
 36 69  1  0
 37 70  1  0
 38 71  1  0
 39 72  1  0
 40 73  1  0
M  END
>  <meeko>  (1) 
{"is_sidechain": false}

>  <vina_affinity_kcal_mol>  (1) 
-8.52

>  <pose_rank>  (1) 
1

$$$$

     RDKit          3D

 73 77  0  0  0  0  0  0  0  0999 V2000
  -34.2650  157.0100    6.7020 C   0  0  0  0  0  0  0  0  0  0  0  0
  -35.2500  156.2240    6.0280 O   0  0  0  0  0  0  0  0  0  0  0  0
  -36.1350  155.6200    6.8580 C   0  0  0  0  0  0  0  0  0  0  0  0
  -36.7540  156.1610    7.7610 O   0  0  0  0  0  0  0  0  0  0  0  0
  -36.2680  154.1760    6.5280 C   0  0  0  0  0  0  0  0  0  0  0  0
  -37.3650  153.6650    5.8010 C   0  0  0  0  0  0  0  0  0  0  0  0
  -37.4650  152.2970    5.5020 C   0  0  0  0  0  0  0  0  0  0  0  0
  -36.4690  151.4420    5.9420 C   0  0  0  0  0  0  0  0  0  0  0  0
  -35.3790  151.9700    6.6470 C   0  0  0  0  0  0  0  0  0  0  0  0
  -35.2520  153.3120    6.9560 C   0  0  0  0  0  0  0  0  0  0  0  0
  -34.4620  150.9740    6.9600 N   0  0  0  0  0  0  0  0  0  0  0  0
  -34.8730  149.7460    6.4810 C   0  0  0  0  0  0  0  0  0  0  0  0
  -34.2740  148.6890    6.5670 O   0  0  0  0  0  0  0  0  0  0  0  0
  -36.2150  149.9910    5.8250 C   0  0  0  0  0  0  0  0  0  0  0  0
  -36.9150  148.9580    5.2920 C   0  0  0  0  0  0  0  0  0  0  0  0
  -36.4180  147.6570    5.2430 N   0  0  0  0  0  0  0  0  0  0  0  0
  -35.7240  146.8860    4.2960 C   0  0  0  0  0  0  0  0  0  0  0  0
  -35.1220  147.5610    3.2260 C   0  0  0  0  0  0  0  0  0  0  0  0
  -34.4430  146.8800    2.2020 C   0  0  0  0  0  0  0  0  0  0  0  0
  -34.3270  145.4880    2.1990 C   0  0  0  0  0  0  0  0  0  0  0  0
  -33.6570  144.7690    1.1370 N   0  0  0  0  0  0  0  0  0  0  0  0
  -32.2010  144.8930    1.0510 C   0  0  0  0  0  0  0  0  0  0  0  0
  -34.3700  144.0580    0.1460 C   0  0  0  0  0  0  0  0  0  0  0  0
  -34.8860  142.9540    0.3320 O   0  0  0  0  0  0  0  0  0  0  0  0
  -34.4740  144.7600   -1.2310 C   0  0  0  0  0  0  0  0  0  0  0  0
  -35.2580  146.0090   -1.1720 N   0  0  0  0  0  0  0  0  0  0  0  0
  -34.6550  147.0630   -2.0090 C   0  0  0  0  0  0  0  0  0  0  0  0
  -35.6360  148.1860   -2.4400 C   0  0  0  0  0  0  0  0  0  0  0  0
  -36.7940  148.4000   -1.5550 N   0  0  0  0  0  0  0  0  0  0  0  0
  -36.3680  148.9620   -0.2710 C   0  0  0  0  0  0  0  0  0  0  0  0
  -37.5070  147.1170   -1.3500 C   0  0  0  0  0  0  0  0  0  0  0  0
  -36.6710  145.8190   -1.5290 C   0  0  0  0  0  0  0  0  0  0  0  0
  -34.9520  144.8130    3.2590 C   0  0  0  0  0  0  0  0  0  0  0  0
  -35.6330  145.4990    4.2830 C   0  0  0  0  0  0  0  0  0  0  0  0
  -38.2220  149.2450    4.6710 C   0  0  0  0  0  0  0  0  0  0  0  0
  -39.3910  149.2750    5.4500 C   0  0  0  0  0  0  0  0  0  0  0  0
  -40.6240  149.5610    4.8610 C   0  0  0  0  0  0  0  0  0  0  0  0
  -40.6990  149.8180    3.4930 C   0  0  0  0  0  0  0  0  0  0  0  0
  -39.5440  149.7880    2.7100 C   0  0  0  0  0  0  0  0  0  0  0  0
  -38.3090  149.5020    3.2950 C   0  0  0  0  0  0  0  0  0  0  0  0
  -34.3946  156.9066    7.7894 H   0  0  0  0  0  0  0  0  0  0  0  0
  -33.2609  156.6622    6.4177 H   0  0  0  0  0  0  0  0  0  0  0  0
  -34.3813  158.0662    6.4177 H   0  0  0  0  0  0  0  0  0  0  0  0
  -38.1556  154.3510    5.4628 H   0  0  0  0  0  0  0  0  0  0  0  0
  -38.3202  151.9110    4.9279 H   0  0  0  0  0  0  0  0  0  0  0  0
  -34.3841  153.6875    7.5178 H   0  0  0  0  0  0  0  0  0  0  0  0
  -33.5860  151.1050    7.4450 H   0  0  0  0  0  0  0  0  0  0  0  0
  -36.6750  147.1070    6.0700 H   0  0  0  0  0  0  0  0  0  0  0  0
  -35.1830  148.6586    3.1865 H   0  0  0  0  0  0  0  0  0  0  0  0
  -33.9913  147.4575    1.3819 H   0  0  0  0  0  0  0  0  0  0  0  0
  -31.7756  144.9292    2.0648 H   0  0  0  0  0  0  0  0  0  0  0  0
  -31.7904  144.0266    0.5118 H   0  0  0  0  0  0  0  0  0  0  0  0
  -31.9429  145.8164    0.5118 H   0  0  0  0  0  0  0  0  0  0  0  0
  -33.4593  144.9970   -1.5835 H   0  0  0  0  0  0  0  0  0  0  0  0
  -34.9911  144.0734   -1.9174 H   0  0  0  0  0  0  0  0  0  0  0  0
  -33.8336  147.5243   -1.4410 H   0  0  0  0  0  0  0  0  0  0  0  0
  -34.3176  146.5719   -2.9337 H   0  0  0  0  0  0  0  0  0  0  0  0
  -35.0701  149.1280   -2.4891 H   0  0  0  0  0  0  0  0  0  0  0  0
  -36.0533  147.8640   -3.4055 H   0  0  0  0  0  0  0  0  0  0  0  0
  -36.8105  148.3783    0.5496 H   0  0  0  0  0  0  0  0  0  0  0  0
  -35.2711  148.9223   -0.1992 H   0  0  0  0  0  0  0  0  0  0  0  0
  -36.7026  150.0074   -0.1992 H   0  0  0  0  0  0  0  0  0  0  0  0
  -37.9068  147.1176   -0.3252 H   0  0  0  0  0  0  0  0  0  0  0  0
  -38.2711  147.0807   -2.1405 H   0  0  0  0  0  0  0  0  0  0  0  0
  -37.0954  145.0340   -0.8859 H   0  0  0  0  0  0  0  0  0  0  0  0
  -36.7135  145.5365   -2.5913 H   0  0  0  0  0  0  0  0  0  0  0  0
  -34.9085  143.7143    3.2908 H   0  0  0  0  0  0  0  0  0  0  0  0
  -36.1047  144.9230    5.0927 H   0  0  0  0  0  0  0  0  0  0  0  0
  -39.3344  149.0721    6.5296 H   0  0  0  0  0  0  0  0  0  0  0  0
  -41.5357  149.5835    5.4760 H   0  0  0  0  0  0  0  0  0  0  0  0
  -41.6705  150.0449    3.0296 H   0  0  0  0  0  0  0  0  0  0  0  0
  -39.6068  149.9900    1.6305 H   0  0  0  0  0  0  0  0  0  0  0  0
  -37.4010  149.4782    2.6745 H   0  0  0  0  0  0  0  0  0  0  0  0
  1  2  1  0
  2  3  1  0
  3  4  2  0
  3  5  1  0
  5  6  1  0
  6  7  2  0
  7  8  1  0
  8  9  2  0
  9 10  1  0
  9 11  1  0
 11 12  1  0
 12 13  2  0
 12 14  1  0
 14 15  2  0
 15 16  1  0
 16 17  1  0
 17 18  1  0
 18 19  2  0
 19 20  1  0
 20 21  1  0
 21 22  1  0
 21 23  1  0
 23 24  2  0
 23 25  1  0
 25 26  1  0
 26 27  1  0
 27 28  1  0
 28 29  1  0
 29 30  1  0
 29 31  1  0
 31 32  1  0
 20 33  2  0
 33 34  1  0
 15 35  1  0
 35 36  2  0
 36 37  1  0
 37 38  2  0
 38 39  1  0
 39 40  2  0
 10  5  2  0
 34 17  2  0
 40 35  1  0
 14  8  1  0
 32 26  1  0
  1 41  1  0
  1 42  1  0
  1 43  1  0
  6 44  1  0
  7 45  1  0
 10 46  1  0
 11 47  1  0
 16 48  1  0
 18 49  1  0
 19 50  1  0
 22 51  1  0
 22 52  1  0
 22 53  1  0
 25 54  1  0
 25 55  1  0
 27 56  1  0
 27 57  1  0
 28 58  1  0
 28 59  1  0
 30 60  1  0
 30 61  1  0
 30 62  1  0
 31 63  1  0
 31 64  1  0
 32 65  1  0
 32 66  1  0
 33 67  1  0
 34 68  1  0
 36 69  1  0
 37 70  1  0
 38 71  1  0
 39 72  1  0
 40 73  1  0
M  END
>  <meeko>  (2) 
{"is_sidechain": false}

>  <vina_affinity_kcal_mol>  (2) 
-8.367

>  <pose_rank>  (2) 
2

$$$$

     RDKit          3D

 73 77  0  0  0  0  0  0  0  0999 V2000
  -33.5420  145.4850    0.9070 C   0  0  0  0  0  0  0  0  0  0  0  0
  -34.7840  145.0350    1.4500 O   0  0  0  0  0  0  0  0  0  0  0  0
  -34.7980  144.9590    2.8030 C   0  0  0  0  0  0  0  0  0  0  0  0
  -34.4010  144.0170    3.4720 O   0  0  0  0  0  0  0  0  0  0  0  0
  -35.3720  146.1960    3.3970 C   0  0  0  0  0  0  0  0  0  0  0  0
  -36.7310  146.5470    3.2440 C   0  0  0  0  0  0  0  0  0  0  0  0
  -37.2470  147.7200    3.8160 C   0  0  0  0  0  0  0  0  0  0  0  0
  -36.3960  148.5450    4.5320 C   0  0  0  0  0  0  0  0  0  0  0  0
  -35.0550  148.1710    4.6880 C   0  0  0  0  0  0  0  0  0  0  0  0
  -34.5180  147.0220    4.1380 C   0  0  0  0  0  0  0  0  0  0  0  0
  -34.3730  149.0910    5.4740 N   0  0  0  0  0  0  0  0  0  0  0  0
  -35.2060  150.1090    5.8920 C   0  0  0  0  0  0  0  0  0  0  0  0
  -34.9140  151.0450    6.6160 O   0  0  0  0  0  0  0  0  0  0  0  0
  -36.5540  149.8160    5.2690 C   0  0  0  0  0  0  0  0  0  0  0  0
  -37.5930  150.6700    5.4500 C   0  0  0  0  0  0  0  0  0  0  0  0
  -37.5070  151.7960    6.2670 N   0  0  0  0  0  0  0  0  0  0  0  0
  -37.4270  153.1830    6.0550 C   0  0  0  0  0  0  0  0  0  0  0  0
  -37.4740  153.6400    4.7320 C   0  0  0  0  0  0  0  0  0  0  0  0
  -37.3580  155.0030    4.4090 C   0  0  0  0  0  0  0  0  0  0  0  0
  -37.1910  155.9780    5.3950 C   0  0  0  0  0  0  0  0  0  0  0  0
  -37.0400  157.3820    5.0780 N   0  0  0  0  0  0  0  0  0  0  0  0
  -36.7840  158.3020    6.1880 C   0  0  0  0  0  0  0  0  0  0  0  0
  -37.2360  157.8810    3.7710 C   0  0  0  0  0  0  0  0  0  0  0  0
  -36.3410  158.3790    3.0860 O   0  0  0  0  0  0  0  0  0  0  0  0
  -38.6810  157.7660    3.2260 C   0  0  0  0  0  0  0  0  0  0  0  0
  -38.9350  158.6810    2.0960 N   0  0  0  0  0  0  0  0  0  0  0  0
  -38.4250  158.1250    0.8290 C   0  0  0  0  0  0  0  0  0  0  0  0
  -39.0850  158.7140   -0.4470 C   0  0  0  0  0  0  0  0  0  0  0  0
  -39.6490  160.0680   -0.3100 N   0  0  0  0  0  0  0  0  0  0  0  0
  -38.5830  161.0570   -0.1390 C   0  0  0  0  0  0  0  0  0  0  0  0
  -40.5820  160.1030    0.8400 C   0  0  0  0  0  0  0  0  0  0  0  0
  -40.3500  159.0500    1.9590 C   0  0  0  0  0  0  0  0  0  0  0  0
  -37.1190  155.5140    6.7180 C   0  0  0  0  0  0  0  0  0  0  0  0
  -37.2350  154.1470    7.0370 C   0  0  0  0  0  0  0  0  0  0  0  0
  -38.8850  150.3460    4.8160 C   0  0  0  0  0  0  0  0  0  0  0  0
  -39.1670  150.7800    3.5110 C   0  0  0  0  0  0  0  0  0  0  0  0
  -40.3860  150.4590    2.9090 C   0  0  0  0  0  0  0  0  0  0  0  0
  -41.3290  149.7050    3.6060 C   0  0  0  0  0  0  0  0  0  0  0  0
  -41.0590  149.2710    4.9040 C   0  0  0  0  0  0  0  0  0  0  0  0
  -39.8410  149.5900    5.5090 C   0  0  0  0  0  0  0  0  0  0  0  0
  -32.8524  145.7348    1.7268 H   0  0  0  0  0  0  0  0  0  0  0  0
  -33.1025  144.6889    0.2880 H   0  0  0  0  0  0  0  0  0  0  0  0
  -33.7144  146.3778    0.2880 H   0  0  0  0  0  0  0  0  0  0  0  0
  -37.3971  145.8894    2.6662 H   0  0  0  0  0  0  0  0  0  0  0  0
  -38.3093  147.9797    3.6976 H   0  0  0  0  0  0  0  0  0  0  0  0
  -33.4574  146.7657    4.2775 H   0  0  0  0  0  0  0  0  0  0  0  0
  -33.4030  149.0330    5.7490 H   0  0  0  0  0  0  0  0  0  0  0  0
  -37.4150  151.5550    7.2600 H   0  0  0  0  0  0  0  0  0  0  0  0
  -37.6058  152.9094    3.9203 H   0  0  0  0  0  0  0  0  0  0  0  0
  -37.3998  155.3095    3.3534 H   0  0  0  0  0  0  0  0  0  0  0  0
  -36.9307  157.7750    7.1423 H   0  0  0  0  0  0  0  0  0  0  0  0
  -35.7492  158.6703    6.1278 H   0  0  0  0  0  0  0  0  0  0  0  0
  -37.4798  159.1519    6.1278 H   0  0  0  0  0  0  0  0  0  0  0  0
  -38.8489  156.7329    2.8876 H   0  0  0  0  0  0  0  0  0  0  0  0
  -39.3674  158.0425    4.0399 H   0  0  0  0  0  0  0  0  0  0  0  0
  -37.3440  158.3220    0.7783 H   0  0  0  0  0  0  0  0  0  0  0  0
  -38.6679  157.0522    0.8390 H   0  0  0  0  0  0  0  0  0  0  0  0
  -38.3216  158.7448   -1.2384 H   0  0  0  0  0  0  0  0  0  0  0  0
  -39.9374  158.0566   -0.6732 H   0  0  0  0  0  0  0  0  0  0  0  0
  -38.4048  161.2223    0.9338 H   0  0  0  0  0  0  0  0  0  0  0  0
  -37.6608  160.6875   -0.6112 H   0  0  0  0  0  0  0  0  0  0  0  0
  -38.8825  162.0043   -0.6112 H   0  0  0  0  0  0  0  0  0  0  0  0
  -40.5075  161.0996    1.2995 H   0  0  0  0  0  0  0  0  0  0  0  0
  -41.5696  159.8642    0.4185 H   0  0  0  0  0  0  0  0  0  0  0  0
  -40.7004  159.4671    2.9147 H   0  0  0  0  0  0  0  0  0  0  0  0
  -40.9084  158.1423    1.6864 H   0  0  0  0  0  0  0  0  0  0  0  0
  -36.9674  156.2401    7.5303 H   0  0  0  0  0  0  0  0  0  0  0  0
  -37.1720  153.8348    8.0899 H   0  0  0  0  0  0  0  0  0  0  0  0
  -38.4245  151.3757    2.9599 H   0  0  0  0  0  0  0  0  0  0  0  0
  -40.6016  150.8008    1.8859 H   0  0  0  0  0  0  0  0  0  0  0  0
  -42.2884  149.4517    3.1312 H   0  0  0  0  0  0  0  0  0  0  0  0
  -41.8057  148.6772    5.4515 H   0  0  0  0  0  0  0  0  0  0  0  0
  -39.6312  149.2468    6.5328 H   0  0  0  0  0  0  0  0  0  0  0  0
  1  2  1  0
  2  3  1  0
  3  4  2  0
  3  5  1  0
  5  6  1  0
  6  7  2  0
  7  8  1  0
  8  9  2  0
  9 10  1  0
  9 11  1  0
 11 12  1  0
 12 13  2  0
 12 14  1  0
 14 15  2  0
 15 16  1  0
 16 17  1  0
 17 18  1  0
 18 19  2  0
 19 20  1  0
 20 21  1  0
 21 22  1  0
 21 23  1  0
 23 24  2  0
 23 25  1  0
 25 26  1  0
 26 27  1  0
 27 28  1  0
 28 29  1  0
 29 30  1  0
 29 31  1  0
 31 32  1  0
 20 33  2  0
 33 34  1  0
 15 35  1  0
 35 36  2  0
 36 37  1  0
 37 38  2  0
 38 39  1  0
 39 40  2  0
 10  5  2  0
 34 17  2  0
 40 35  1  0
 14  8  1  0
 32 26  1  0
  1 41  1  0
  1 42  1  0
  1 43  1  0
  6 44  1  0
  7 45  1  0
 10 46  1  0
 11 47  1  0
 16 48  1  0
 18 49  1  0
 19 50  1  0
 22 51  1  0
 22 52  1  0
 22 53  1  0
 25 54  1  0
 25 55  1  0
 27 56  1  0
 27 57  1  0
 28 58  1  0
 28 59  1  0
 30 60  1  0
 30 61  1  0
 30 62  1  0
 31 63  1  0
 31 64  1  0
 32 65  1  0
 32 66  1  0
 33 67  1  0
 34 68  1  0
 36 69  1  0
 37 70  1  0
 38 71  1  0
 39 72  1  0
 40 73  1  0
M  END
>  <meeko>  (3) 
{"is_sidechain": false}

>  <vina_affinity_kcal_mol>  (3) 
-8.267

>  <pose_rank>  (3) 
3

$$$$

     RDKit          3D

 73 77  0  0  0  0  0  0  0  0999 V2000
  -33.6430  156.8490    6.0170 C   0  0  0  0  0  0  0  0  0  0  0  0
  -34.1990  156.1340    7.1220 O   0  0  0  0  0  0  0  0  0  0  0  0
  -35.5520  156.0610    7.1080 C   0  0  0  0  0  0  0  0  0  0  0  0
  -36.3200  156.9490    7.4430 O   0  0  0  0  0  0  0  0  0  0  0  0
  -36.0050  154.7310    6.6190 C   0  0  0  0  0  0  0  0  0  0  0  0
  -35.5590  153.5230    7.1970 C   0  0  0  0  0  0  0  0  0  0  0  0
  -36.0040  152.2810    6.7170 C   0  0  0  0  0  0  0  0  0  0  0  0
  -36.8880  152.2530    5.6510 C   0  0  0  0  0  0  0  0  0  0  0  0
  -37.3330  153.4630    5.1030 C   0  0  0  0  0  0  0  0  0  0  0  0
  -36.9140  154.7020    5.5540 C   0  0  0  0  0  0  0  0  0  0  0  0
  -38.2480  153.2380    4.0830 N   0  0  0  0  0  0  0  0  0  0  0  0
  -38.4730  151.8880    3.9010 C   0  0  0  0  0  0  0  0  0  0  0  0
  -39.2420  151.3740    3.1080 O   0  0  0  0  0  0  0  0  0  0  0  0
  -37.5710  151.1850    4.8940 C   0  0  0  0  0  0  0  0  0  0  0  0
  -37.5210  149.8300    4.9320 C   0  0  0  0  0  0  0  0  0  0  0  0
  -38.3360  149.0230    4.1400 N   0  0  0  0  0  0  0  0  0  0  0  0
  -38.3240  148.5970    2.8020 C   0  0  0  0  0  0  0  0  0  0  0  0
  -37.0980  148.6180    2.1250 C   0  0  0  0  0  0  0  0  0  0  0  0
  -36.9850  148.2530    0.7730 C   0  0  0  0  0  0  0  0  0  0  0  0
  -38.0950  147.8450    0.0290 C   0  0  0  0  0  0  0  0  0  0  0  0
  -38.0020  147.4950   -1.3710 N   0  0  0  0  0  0  0  0  0  0  0  0
  -39.0380  146.6180   -1.9190 C   0  0  0  0  0  0  0  0  0  0  0  0
  -36.9030  147.8840   -2.1700 C   0  0  0  0  0  0  0  0  0  0  0  0
  -36.7340  149.0290   -2.5920 O   0  0  0  0  0  0  0  0  0  0  0  0
  -35.8900  146.7590   -2.4990 C   0  0  0  0  0  0  0  0  0  0  0  0
  -34.9710  146.4800   -1.3790 N   0  0  0  0  0  0  0  0  0  0  0  0
  -35.2290  145.1530   -0.7900 C   0  0  0  0  0  0  0  0  0  0  0  0
  -34.0330  144.5500   -0.0050 C   0  0  0  0  0  0  0  0  0  0  0  0
  -33.0720  145.5230    0.5450 N   0  0  0  0  0  0  0  0  0  0  0  0
  -33.6810  146.2930    1.6320 C   0  0  0  0  0  0  0  0  0  0  0  0
  -32.6050  146.4240   -0.5330 C   0  0  0  0  0  0  0  0  0  0  0  0
  -33.5550  146.6070   -1.7500 C   0  0  0  0  0  0  0  0  0  0  0  0
  -39.3260  147.8490    0.7030 C   0  0  0  0  0  0  0  0  0  0  0  0
  -39.4350  148.2160    2.0580 C   0  0  0  0  0  0  0  0  0  0  0  0
  -36.6210  149.1910    5.9120 C   0  0  0  0  0  0  0  0  0  0  0  0
  -35.2980  148.8750    5.5630 C   0  0  0  0  0  0  0  0  0  0  0  0
  -34.4440  148.2840    6.4960 C   0  0  0  0  0  0  0  0  0  0  0  0
  -34.9070  148.0030    7.7820 C   0  0  0  0  0  0  0  0  0  0  0  0
  -36.2200  148.3100    8.1370 C   0  0  0  0  0  0  0  0  0  0  0  0
  -37.0770  148.9020    7.2060 C   0  0  0  0  0  0  0  0  0  0  0  0
  -33.0079  157.6657    6.3909 H   0  0  0  0  0  0  0  0  0  0  0  0
  -33.0375  156.1646    5.4047 H   0  0  0  0  0  0  0  0  0  0  0  0
  -34.4555  157.2672    5.4047 H   0  0  0  0  0  0  0  0  0  0  0  0
  -34.8506  153.5553    8.0379 H   0  0  0  0  0  0  0  0  0  0  0  0
  -35.6564  151.3456    7.1798 H   0  0  0  0  0  0  0  0  0  0  0  0
  -37.2815  155.6306    5.0928 H   0  0  0  0  0  0  0  0  0  0  0  0
  -38.7270  153.9470    3.5480 H   0  0  0  0  0  0  0  0  0  0  0  0
  -39.1840  148.7190    4.6310 H   0  0  0  0  0  0  0  0  0  0  0  0
  -36.1946  148.9303    2.6694 H   0  0  0  0  0  0  0  0  0  0  0  0
  -35.9982  148.2894    0.2882 H   0  0  0  0  0  0  0  0  0  0  0  0
  -39.5938  146.1475   -1.0946 H   0  0  0  0  0  0  0  0  0  0  0  0
  -39.7296  147.2092   -2.5371 H   0  0  0  0  0  0  0  0  0  0  0  0
  -38.5690  145.8382   -2.5371 H   0  0  0  0  0  0  0  0  0  0  0  0
  -36.4474  145.8405   -2.7350 H   0  0  0  0  0  0  0  0  0  0  0  0
  -35.2834  147.0951   -3.3529 H   0  0  0  0  0  0  0  0  0  0  0  0
  -36.0811  145.2437   -0.1003 H   0  0  0  0  0  0  0  0  0  0  0  0
  -35.4248  144.4716   -1.6311 H   0  0  0  0  0  0  0  0  0  0  0  0
  -34.4396  143.9659    0.8338 H   0  0  0  0  0  0  0  0  0  0  0  0
  -33.4680  143.9509   -0.7343 H   0  0  0  0  0  0  0  0  0  0  0  0
  -33.3560  145.8821    2.5992 H   0  0  0  0  0  0  0  0  0  0  0  0
  -33.3677  147.3447    1.5566 H   0  0  0  0  0  0  0  0  0  0  0  0
  -34.7766  146.2304    1.5566 H   0  0  0  0  0  0  0  0  0  0  0  0
  -32.4372  147.4163   -0.0889 H   0  0  0  0  0  0  0  0  0  0  0  0
  -31.7025  145.9445   -0.9400 H   0  0  0  0  0  0  0  0  0  0  0  0
  -33.3905  147.6063   -2.1795 H   0  0  0  0  0  0  0  0  0  0  0  0
  -33.3261  145.8135   -2.4766 H   0  0  0  0  0  0  0  0  0  0  0  0
  -40.2341  147.5563    0.1556 H   0  0  0  0  0  0  0  0  0  0  0  0
  -40.4237  148.2009    2.5399 H   0  0  0  0  0  0  0  0  0  0  0  0
  -34.9325  149.0943    4.5489 H   0  0  0  0  0  0  0  0  0  0  0  0
  -33.4080  148.0403    6.2179 H   0  0  0  0  0  0  0  0  0  0  0  0
  -34.2343  147.5380    8.5177 H   0  0  0  0  0  0  0  0  0  0  0  0
  -36.5815  148.0858    9.1514 H   0  0  0  0  0  0  0  0  0  0  0  0
  -38.1125  149.1421    7.4889 H   0  0  0  0  0  0  0  0  0  0  0  0
  1  2  1  0
  2  3  1  0
  3  4  2  0
  3  5  1  0
  5  6  1  0
  6  7  2  0
  7  8  1  0
  8  9  2  0
  9 10  1  0
  9 11  1  0
 11 12  1  0
 12 13  2  0
 12 14  1  0
 14 15  2  0
 15 16  1  0
 16 17  1  0
 17 18  1  0
 18 19  2  0
 19 20  1  0
 20 21  1  0
 21 22  1  0
 21 23  1  0
 23 24  2  0
 23 25  1  0
 25 26  1  0
 26 27  1  0
 27 28  1  0
 28 29  1  0
 29 30  1  0
 29 31  1  0
 31 32  1  0
 20 33  2  0
 33 34  1  0
 15 35  1  0
 35 36  2  0
 36 37  1  0
 37 38  2  0
 38 39  1  0
 39 40  2  0
 10  5  2  0
 34 17  2  0
 40 35  1  0
 14  8  1  0
 32 26  1  0
  1 41  1  0
  1 42  1  0
  1 43  1  0
  6 44  1  0
  7 45  1  0
 10 46  1  0
 11 47  1  0
 16 48  1  0
 18 49  1  0
 19 50  1  0
 22 51  1  0
 22 52  1  0
 22 53  1  0
 25 54  1  0
 25 55  1  0
 27 56  1  0
 27 57  1  0
 28 58  1  0
 28 59  1  0
 30 60  1  0
 30 61  1  0
 30 62  1  0
 31 63  1  0
 31 64  1  0
 32 65  1  0
 32 66  1  0
 33 67  1  0
 34 68  1  0
 36 69  1  0
 37 70  1  0
 38 71  1  0
 39 72  1  0
 40 73  1  0
M  END
>  <meeko>  (4) 
{"is_sidechain": false}

>  <vina_affinity_kcal_mol>  (4) 
-8.137

>  <pose_rank>  (4) 
4

$$$$

     RDKit          3D

 73 77  0  0  0  0  0  0  0  0999 V2000
  -41.6110  145.9610   -7.4090 C   0  0  0  0  0  0  0  0  0  0  0  0
  -42.4750  145.5850   -6.3350 O   0  0  0  0  0  0  0  0  0  0  0  0
  -42.6240  146.5430   -5.3870 C   0  0  0  0  0  0  0  0  0  0  0  0
  -43.4350  147.4560   -5.4130 O   0  0  0  0  0  0  0  0  0  0  0  0
  -41.6550  146.3430   -4.2770 C   0  0  0  0  0  0  0  0  0  0  0  0
  -40.4490  147.0720   -4.1880 C   0  0  0  0  0  0  0  0  0  0  0  0
  -39.5520  146.8640   -3.1280 C   0  0  0  0  0  0  0  0  0  0  0  0
  -39.8620  145.9190   -2.1640 C   0  0  0  0  0  0  0  0  0  0  0  0
  -41.0720  145.2190   -2.2600 C   0  0  0  0  0  0  0  0  0  0  0  0
  -41.9750  145.4010   -3.2910 C   0  0  0  0  0  0  0  0  0  0  0  0
  -41.2310  144.3560   -1.1840 N   0  0  0  0  0  0  0  0  0  0  0  0
  -40.1620  144.4360   -0.3140 C   0  0  0  0  0  0  0  0  0  0  0  0
  -40.0220  143.8300    0.7330 O   0  0  0  0  0  0  0  0  0  0  0  0
  -39.2060  145.4350   -0.9330 C   0  0  0  0  0  0  0  0  0  0  0  0
  -38.0170  145.7030   -0.3370 C   0  0  0  0  0  0  0  0  0  0  0  0
  -37.6480  145.1540    0.8900 N   0  0  0  0  0  0  0  0  0  0  0  0
  -37.0860  145.6480    2.0790 C   0  0  0  0  0  0  0  0  0  0  0  0
  -37.9220  145.7490    3.1980 C   0  0  0  0  0  0  0  0  0  0  0  0
  -37.4710  146.2700    4.4220 C   0  0  0  0  0  0  0  0  0  0  0  0
  -36.1570  146.7140    4.5890 C   0  0  0  0  0  0  0  0  0  0  0  0
  -35.6840  147.2820    5.8330 N   0  0  0  0  0  0  0  0  0  0  0  0
  -35.2500  146.3530    6.8780 C   0  0  0  0  0  0  0  0  0  0  0  0
  -35.7350  148.6700    6.0920 C   0  0  0  0  0  0  0  0  0  0  0  0
  -34.7930  149.4390    5.8910 O   0  0  0  0  0  0  0  0  0  0  0  0
  -37.0780  149.1920    6.6600 C   0  0  0  0  0  0  0  0  0  0  0  0
  -38.0520  149.5200    5.6000 N   0  0  0  0  0  0  0  0  0  0  0  0
  -39.4130  149.0870    5.9680 C   0  0  0  0  0  0  0  0  0  0  0  0
  -40.5520  149.8280    5.2170 C   0  0  0  0  0  0  0  0  0  0  0  0
  -40.1930  150.3890    3.9030 N   0  0  0  0  0  0  0  0  0  0  0  0
  -39.9510  149.3190    2.9320 C   0  0  0  0  0  0  0  0  0  0  0  0
  -38.9950  151.2490    4.0390 C   0  0  0  0  0  0  0  0  0  0  0  0
  -38.0490  150.9420    5.2340 C   0  0  0  0  0  0  0  0  0  0  0  0
  -35.3290  146.6350    3.4590 C   0  0  0  0  0  0  0  0  0  0  0  0
  -35.7850  146.1120    2.2340 C   0  0  0  0  0  0  0  0  0  0  0  0
  -37.1160  146.6770   -0.9810 C   0  0  0  0  0  0  0  0  0  0  0  0
  -36.2000  146.2620   -1.9620 C   0  0  0  0  0  0  0  0  0  0  0  0
  -35.3580  147.1890   -2.5790 C   0  0  0  0  0  0  0  0  0  0  0  0
  -35.4250  148.5350   -2.2220 C   0  0  0  0  0  0  0  0  0  0  0  0
  -36.3300  148.9580   -1.2470 C   0  0  0  0  0  0  0  0  0  0  0  0
  -37.1730  148.0330   -0.6270 C   0  0  0  0  0  0  0  0  0  0  0  0
  -40.6744  146.3686   -7.0007 H   0  0  0  0  0  0  0  0  0  0  0  0
  -41.3883  145.0784   -8.0266 H   0  0  0  0  0  0  0  0  0  0  0  0
  -42.1051  146.7255   -8.0266 H   0  0  0  0  0  0  0  0  0  0  0  0
  -40.2082  147.8154   -4.9622 H   0  0  0  0  0  0  0  0  0  0  0  0
  -38.6183  147.4421   -3.0642 H   0  0  0  0  0  0  0  0  0  0  0  0
  -42.9118  144.8262   -3.3354 H   0  0  0  0  0  0  0  0  0  0  0  0
  -42.0280  143.7600   -1.0140 H   0  0  0  0  0  0  0  0  0  0  0  0
  -37.7490  144.1330    0.9090 H   0  0  0  0  0  0  0  0  0  0  0  0
  -38.9651  145.4095    3.1158 H   0  0  0  0  0  0  0  0  0  0  0  0
  -38.1695  146.3299    5.2697 H   0  0  0  0  0  0  0  0  0  0  0  0
  -35.4546  146.7910    7.8661 H   0  0  0  0  0  0  0  0  0  0  0  0
  -35.7984  145.4048    6.7765 H   0  0  0  0  0  0  0  0  0  0  0  0
  -34.1709  146.1651    6.7765 H   0  0  0  0  0  0  0  0  0  0  0  0
  -37.5112  148.4170    7.3093 H   0  0  0  0  0  0  0  0  0  0  0  0
  -36.8677  150.1165    7.2178 H   0  0  0  0  0  0  0  0  0  0  0  0
  -39.5015  148.0122    5.7512 H   0  0  0  0  0  0  0  0  0  0  0  0
  -39.5376  149.3235    7.0350 H   0  0  0  0  0  0  0  0  0  0  0  0
  -41.3764  149.1155    5.0662 H   0  0  0  0  0  0  0  0  0  0  0  0
  -40.8157  150.6894    5.8482 H   0  0  0  0  0  0  0  0  0  0  0  0
  -39.7388  148.3808    3.4656 H   0  0  0  0  0  0  0  0  0  0  0  0
  -40.8423  149.1883    2.3007 H   0  0  0  0  0  0  0  0  0  0  0  0
  -39.0902  149.5845    2.3007 H   0  0  0  0  0  0  0  0  0  0  0  0
  -38.4072  151.1509    3.1144 H   0  0  0  0  0  0  0  0  0  0  0  0
  -39.3842  152.2600    4.2298 H   0  0  0  0  0  0  0  0  0  0  0  0
  -37.0249  151.2334    4.9576 H   0  0  0  0  0  0  0  0  0  0  0  0
  -38.4102  151.5124    6.1025 H   0  0  0  0  0  0  0  0  0  0  0  0
  -34.2914  146.9928    3.5325 H   0  0  0  0  0  0  0  0  0  0  0  0
  -35.0947  146.0695    1.3786 H   0  0  0  0  0  0  0  0  0  0  0  0
  -36.1459  145.2006   -2.2456 H   0  0  0  0  0  0  0  0  0  0  0  0
  -34.6425  146.8578   -3.3460 H   0  0  0  0  0  0  0  0  0  0  0  0
  -34.7630  149.2656   -2.7099 H   0  0  0  0  0  0  0  0  0  0  0  0
  -36.3792  150.0206   -0.9668 H   0  0  0  0  0  0  0  0  0  0  0  0
  -37.8843  148.3692    0.1418 H   0  0  0  0  0  0  0  0  0  0  0  0
  1  2  1  0
  2  3  1  0
  3  4  2  0
  3  5  1  0
  5  6  1  0
  6  7  2  0
  7  8  1  0
  8  9  2  0
  9 10  1  0
  9 11  1  0
 11 12  1  0
 12 13  2  0
 12 14  1  0
 14 15  2  0
 15 16  1  0
 16 17  1  0
 17 18  1  0
 18 19  2  0
 19 20  1  0
 20 21  1  0
 21 22  1  0
 21 23  1  0
 23 24  2  0
 23 25  1  0
 25 26  1  0
 26 27  1  0
 27 28  1  0
 28 29  1  0
 29 30  1  0
 29 31  1  0
 31 32  1  0
 20 33  2  0
 33 34  1  0
 15 35  1  0
 35 36  2  0
 36 37  1  0
 37 38  2  0
 38 39  1  0
 39 40  2  0
 10  5  2  0
 34 17  2  0
 40 35  1  0
 14  8  1  0
 32 26  1  0
  1 41  1  0
  1 42  1  0
  1 43  1  0
  6 44  1  0
  7 45  1  0
 10 46  1  0
 11 47  1  0
 16 48  1  0
 18 49  1  0
 19 50  1  0
 22 51  1  0
 22 52  1  0
 22 53  1  0
 25 54  1  0
 25 55  1  0
 27 56  1  0
 27 57  1  0
 28 58  1  0
 28 59  1  0
 30 60  1  0
 30 61  1  0
 30 62  1  0
 31 63  1  0
 31 64  1  0
 32 65  1  0
 32 66  1  0
 33 67  1  0
 34 68  1  0
 36 69  1  0
 37 70  1  0
 38 71  1  0
 39 72  1  0
 40 73  1  0
M  END
>  <meeko>  (5) 
{"is_sidechain": false}

>  <vina_affinity_kcal_mol>  (5) 
-7.913

>  <pose_rank>  (5) 
5

$$$$

     RDKit          3D

 73 77  0  0  0  0  0  0  0  0999 V2000
  -34.2070  156.7760    6.6360 C   0  0  0  0  0  0  0  0  0  0  0  0
  -34.5450  155.5860    7.3520 O   0  0  0  0  0  0  0  0  0  0  0  0
  -35.8690  155.2990    7.3480 C   0  0  0  0  0  0  0  0  0  0  0  0
  -36.7620  156.0310    7.7460 O   0  0  0  0  0  0  0  0  0  0  0  0
  -36.1150  153.9440    6.7850 C   0  0  0  0  0  0  0  0  0  0  0  0
  -37.3550  153.5760    6.2190 C   0  0  0  0  0  0  0  0  0  0  0  0
  -37.5590  152.2900    5.6940 C   0  0  0  0  0  0  0  0  0  0  0  0
  -36.5230  151.3730    5.7460 C   0  0  0  0  0  0  0  0  0  0  0  0
  -35.2950  151.7630    6.2950 C   0  0  0  0  0  0  0  0  0  0  0  0
  -35.0630  153.0220    6.8200 C   0  0  0  0  0  0  0  0  0  0  0  0
  -34.3670  150.7320    6.2160 N   0  0  0  0  0  0  0  0  0  0  0  0
  -34.9080  149.6170    5.6090 C   0  0  0  0  0  0  0  0  0  0  0  0
  -34.3400  148.5670    5.3650 O   0  0  0  0  0  0  0  0  0  0  0  0
  -36.3480  149.9740    5.3050 C   0  0  0  0  0  0  0  0  0  0  0  0
  -37.1760  149.0580    4.7440 C   0  0  0  0  0  0  0  0  0  0  0  0
  -36.7430  147.7950    4.3460 N   0  0  0  0  0  0  0  0  0  0  0  0
  -36.8440  147.0250    3.1750 C   0  0  0  0  0  0  0  0  0  0  0  0
  -36.8830  147.7060    1.9520 C   0  0  0  0  0  0  0  0  0  0  0  0
  -37.0260  147.0340    0.7270 C   0  0  0  0  0  0  0  0  0  0  0  0
  -37.1340  145.6420    0.6630 C   0  0  0  0  0  0  0  0  0  0  0  0
  -37.3130  144.9360   -0.5870 N   0  0  0  0  0  0  0  0  0  0  0  0
  -38.1000  145.5960   -1.6290 C   0  0  0  0  0  0  0  0  0  0  0  0
  -36.8470  143.6150   -0.7750 C   0  0  0  0  0  0  0  0  0  0  0  0
  -37.5390  142.6120   -0.5890 O   0  0  0  0  0  0  0  0  0  0  0  0
  -35.3750  143.4890   -1.2400 C   0  0  0  0  0  0  0  0  0  0  0  0
  -34.5540  144.6480   -0.8420 N   0  0  0  0  0  0  0  0  0  0  0  0
  -33.5060  144.2600    0.1210 C   0  0  0  0  0  0  0  0  0  0  0  0
  -32.2980  145.2340    0.1880 C   0  0  0  0  0  0  0  0  0  0  0  0
  -32.5730  146.6240   -0.2140 N   0  0  0  0  0  0  0  0  0  0  0  0
  -33.4410  147.2830    0.7650 C   0  0  0  0  0  0  0  0  0  0  0  0
  -33.1970  146.6390   -1.5570 C   0  0  0  0  0  0  0  0  0  0  0  0
  -33.9620  145.3560   -1.9850 C   0  0  0  0  0  0  0  0  0  0  0  0
  -37.1200  144.9640    1.8920 C   0  0  0  0  0  0  0  0  0  0  0  0
  -36.9770  145.6420    3.1180 C   0  0  0  0  0  0  0  0  0  0  0  0
  -38.5730  149.4500    4.4740 C   0  0  0  0  0  0  0  0  0  0  0  0
  -39.5820  149.1840    5.4140 C   0  0  0  0  0  0  0  0  0  0  0  0
  -40.9000  149.5690    5.1620 C   0  0  0  0  0  0  0  0  0  0  0  0
  -41.2190  150.2210    3.9710 C   0  0  0  0  0  0  0  0  0  0  0  0
  -40.2240  150.4880    3.0300 C   0  0  0  0  0  0  0  0  0  0  0  0
  -38.9040  150.1040    3.2790 C   0  0  0  0  0  0  0  0  0  0  0  0
  -33.9784  157.5810    7.3499 H   0  0  0  0  0  0  0  0  0  0  0  0
  -33.3273  156.5860    6.0035 H   0  0  0  0  0  0  0  0  0  0  0  0
  -35.0552  157.0768    6.0035 H   0  0  0  0  0  0  0  0  0  0  0  0
  -38.1747  154.3089    6.1889 H   0  0  0  0  0  0  0  0  0  0  0  0
  -38.5265  152.0153    5.2485 H   0  0  0  0  0  0  0  0  0  0  0  0
  -34.0861  153.2887    7.2497 H   0  0  0  0  0  0  0  0  0  0  0  0
  -33.4070  150.7740    6.5230 H   0  0  0  0  0  0  0  0  0  0  0  0
  -36.3010  147.2720    5.1100 H   0  0  0  0  0  0  0  0  0  0  0  0
  -36.7989  148.8028    1.9507 H   0  0  0  0  0  0  0  0  0  0  0  0
  -37.0537  147.6176   -0.2050 H   0  0  0  0  0  0  0  0  0  0  0  0
  -38.8632  146.2360   -1.1621 H   0  0  0  0  0  0  0  0  0  0  0  0
  -37.4371  146.2123   -2.2542 H   0  0  0  0  0  0  0  0  0  0  0  0
  -38.5914  144.8359   -2.2542 H   0  0  0  0  0  0  0  0  0  0  0  0
  -34.9416  142.5808   -0.7957 H   0  0  0  0  0  0  0  0  0  0  0  0
  -35.3753  143.4422   -2.3390 H   0  0  0  0  0  0  0  0  0  0  0  0
  -33.9610  144.2082    1.1211 H   0  0  0  0  0  0  0  0  0  0  0  0
  -33.1089  143.2934   -0.2225 H   0  0  0  0  0  0  0  0  0  0  0  0
  -31.9332  145.2485    1.2256 H   0  0  0  0  0  0  0  0  0  0  0  0
  -31.5653  144.8521   -0.5382 H   0  0  0  0  0  0  0  0  0  0  0  0
  -33.1063  147.0289    1.7815 H   0  0  0  0  0  0  0  0  0  0  0  0
  -33.3911  148.3728    0.6243 H   0  0  0  0  0  0  0  0  0  0  0  0
  -34.4774  146.9422    0.6243 H   0  0  0  0  0  0  0  0  0  0  0  0
  -33.9094  147.4767   -1.5843 H   0  0  0  0  0  0  0  0  0  0  0  0
  -32.3590  146.7256   -2.2643 H   0  0  0  0  0  0  0  0  0  0  0  0
  -34.7664  145.6398   -2.6796 H   0  0  0  0  0  0  0  0  0  0  0  0
  -33.2384  144.6777   -2.4608 H   0  0  0  0  0  0  0  0  0  0  0  0
  -37.2240  143.8689    1.8977 H   0  0  0  0  0  0  0  0  0  0  0  0
  -36.9704  145.0634    4.0535 H   0  0  0  0  0  0  0  0  0  0  0  0
  -39.3324  148.6696    6.3537 H   0  0  0  0  0  0  0  0  0  0  0  0
  -41.6862  149.3584    5.9020 H   0  0  0  0  0  0  0  0  0  0  0  0
  -42.2574  150.5254    3.7731 H   0  0  0  0  0  0  0  0  0  0  0  0
  -40.4791  151.0014    2.0912 H   0  0  0  0  0  0  0  0  0  0  0  0
  -38.1219  150.3155    2.5350 H   0  0  0  0  0  0  0  0  0  0  0  0
  1  2  1  0
  2  3  1  0
  3  4  2  0
  3  5  1  0
  5  6  1  0
  6  7  2  0
  7  8  1  0
  8  9  2  0
  9 10  1  0
  9 11  1  0
 11 12  1  0
 12 13  2  0
 12 14  1  0
 14 15  2  0
 15 16  1  0
 16 17  1  0
 17 18  1  0
 18 19  2  0
 19 20  1  0
 20 21  1  0
 21 22  1  0
 21 23  1  0
 23 24  2  0
 23 25  1  0
 25 26  1  0
 26 27  1  0
 27 28  1  0
 28 29  1  0
 29 30  1  0
 29 31  1  0
 31 32  1  0
 20 33  2  0
 33 34  1  0
 15 35  1  0
 35 36  2  0
 36 37  1  0
 37 38  2  0
 38 39  1  0
 39 40  2  0
 10  5  2  0
 34 17  2  0
 40 35  1  0
 14  8  1  0
 32 26  1  0
  1 41  1  0
  1 42  1  0
  1 43  1  0
  6 44  1  0
  7 45  1  0
 10 46  1  0
 11 47  1  0
 16 48  1  0
 18 49  1  0
 19 50  1  0
 22 51  1  0
 22 52  1  0
 22 53  1  0
 25 54  1  0
 25 55  1  0
 27 56  1  0
 27 57  1  0
 28 58  1  0
 28 59  1  0
 30 60  1  0
 30 61  1  0
 30 62  1  0
 31 63  1  0
 31 64  1  0
 32 65  1  0
 32 66  1  0
 33 67  1  0
 34 68  1  0
 36 69  1  0
 37 70  1  0
 38 71  1  0
 39 72  1  0
 40 73  1  0
M  END
>  <meeko>  (6) 
{"is_sidechain": false}

>  <vina_affinity_kcal_mol>  (6) 
-7.902

>  <pose_rank>  (6) 
6

$$$$

     RDKit          3D

 73 77  0  0  0  0  0  0  0  0999 V2000
  -41.5880  145.9680   -7.4980 C   0  0  0  0  0  0  0  0  0  0  0  0
  -42.2090  145.4330   -6.3270 O   0  0  0  0  0  0  0  0  0  0  0  0
  -42.5390  146.3670   -5.4030 C   0  0  0  0  0  0  0  0  0  0  0  0
  -43.4730  147.1500   -5.4780 O   0  0  0  0  0  0  0  0  0  0  0  0
  -41.6010  146.3240   -4.2500 C   0  0  0  0  0  0  0  0  0  0  0  0
  -40.3450  146.9690   -4.2740 C   0  0  0  0  0  0  0  0  0  0  0  0
  -39.4790  146.9130   -3.1700 C   0  0  0  0  0  0  0  0  0  0  0  0
  -39.8700  146.2030   -2.0480 C   0  0  0  0  0  0  0  0  0  0  0  0
  -41.1280  145.5850   -2.0360 C   0  0  0  0  0  0  0  0  0  0  0  0
  -42.0030  145.6220   -3.1060 C   0  0  0  0  0  0  0  0  0  0  0  0
  -41.3640  144.9660   -0.8150 N   0  0  0  0  0  0  0  0  0  0  0  0
  -40.3020  145.1410    0.0500 C   0  0  0  0  0  0  0  0  0  0  0  0
  -40.2210  144.7480    1.2000 O   0  0  0  0  0  0  0  0  0  0  0  0
  -39.2670  145.9270   -0.7280 C   0  0  0  0  0  0  0  0  0  0  0  0
  -38.0690  146.2240   -0.1650 C   0  0  0  0  0  0  0  0  0  0  0  0
  -37.7570  145.9050    1.1550 N   0  0  0  0  0  0  0  0  0  0  0  0
  -37.3680  146.6290    2.2950 C   0  0  0  0  0  0  0  0  0  0  0  0
  -38.1800  147.6990    2.6920 C   0  0  0  0  0  0  0  0  0  0  0  0
  -37.8570  148.5130    3.7900 C   0  0  0  0  0  0  0  0  0  0  0  0
  -36.7060  148.2940    4.5510 C   0  0  0  0  0  0  0  0  0  0  0  0
  -36.3430  149.1410    5.6670 N   0  0  0  0  0  0  0  0  0  0  0  0
  -36.5030  148.5900    7.0140 C   0  0  0  0  0  0  0  0  0  0  0  0
  -35.9530  150.4870    5.4910 C   0  0  0  0  0  0  0  0  0  0  0  0
  -34.8400  150.8310    5.0870 O   0  0  0  0  0  0  0  0  0  0  0  0
  -37.0290  151.5430    5.8440 C   0  0  0  0  0  0  0  0  0  0  0  0
  -36.4910  152.9170    5.8620 N   0  0  0  0  0  0  0  0  0  0  0  0
  -37.3890  153.8560    5.1650 C   0  0  0  0  0  0  0  0  0  0  0  0
  -37.2110  155.3440    5.5710 C   0  0  0  0  0  0  0  0  0  0  0  0
  -35.8830  155.7100    6.0950 N   0  0  0  0  0  0  0  0  0  0  0  0
  -34.8740  155.6500    5.0350 C   0  0  0  0  0  0  0  0  0  0  0  0
  -35.5220  154.8040    7.2100 C   0  0  0  0  0  0  0  0  0  0  0  0
  -36.1950  153.4030    7.2160 C   0  0  0  0  0  0  0  0  0  0  0  0
  -35.8820  147.2370    4.1350 C   0  0  0  0  0  0  0  0  0  0  0  0
  -36.2080  146.4240    3.0330 C   0  0  0  0  0  0  0  0  0  0  0  0
  -37.0900  146.9850   -0.9650 C   0  0  0  0  0  0  0  0  0  0  0  0
  -36.1830  146.3180   -1.8050 C   0  0  0  0  0  0  0  0  0  0  0  0
  -35.2680  147.0420   -2.5710 C   0  0  0  0  0  0  0  0  0  0  0  0
  -35.2500  148.4350   -2.5020 C   0  0  0  0  0  0  0  0  0  0  0  0
  -36.1450  149.1060   -1.6680 C   0  0  0  0  0  0  0  0  0  0  0  0
  -37.0620  148.3850   -0.9010 C   0  0  0  0  0  0  0  0  0  0  0  0
  -40.7850  146.6598   -7.2037 H   0  0  0  0  0  0  0  0  0  0  0  0
  -41.1643  145.1475   -8.0958 H   0  0  0  0  0  0  0  0  0  0  0  0
  -42.3368  146.5084   -8.0958 H   0  0  0  0  0  0  0  0  0  0  0  0
  -40.0398  147.5248   -5.1729 H   0  0  0  0  0  0  0  0  0  0  0  0
  -38.5058  147.4250   -3.1964 H   0  0  0  0  0  0  0  0  0  0  0  0
  -42.9798  145.1183   -3.0607 H   0  0  0  0  0  0  0  0  0  0  0  0
  -42.2050  144.4730   -0.5530 H   0  0  0  0  0  0  0  0  0  0  0  0
  -37.7430  144.8920    1.3220 H   0  0  0  0  0  0  0  0  0  0  0  0
  -39.0997  147.9084    2.1260 H   0  0  0  0  0  0  0  0  0  0  0  0
  -38.5268  149.3435    4.0574 H   0  0  0  0  0  0  0  0  0  0  0  0
  -36.2770  149.3683    7.7578 H   0  0  0  0  0  0  0  0  0  0  0  0
  -37.5386  148.2443    7.1481 H   0  0  0  0  0  0  0  0  0  0  0  0
  -35.8136  147.7434    7.1481 H   0  0  0  0  0  0  0  0  0  0  0  0
  -37.8339  151.4895    5.0961 H   0  0  0  0  0  0  0  0  0  0  0  0
  -37.3990  151.3167    6.8549 H   0  0  0  0  0  0  0  0  0  0  0  0
  -37.2024  153.7707    4.0843 H   0  0  0  0  0  0  0  0  0  0  0  0
  -38.4139  153.5761    5.4498 H   0  0  0  0  0  0  0  0  0  0  0  0
  -37.4055  155.9622    4.6822 H   0  0  0  0  0  0  0  0  0  0  0  0
  -37.9165  155.5153    6.3974 H   0  0  0  0  0  0  0  0  0  0  0  0
  -33.8722  155.5904    5.4853 H   0  0  0  0  0  0  0  0  0  0  0  0
  -35.0493  154.7607    4.4118 H   0  0  0  0  0  0  0  0  0  0  0  0
  -34.9427  156.5538    4.4118 H   0  0  0  0  0  0  0  0  0  0  0  0
  -34.4333  154.6508    7.1760 H   0  0  0  0  0  0  0  0  0  0  0  0
  -35.8870  155.3043    8.1191 H   0  0  0  0  0  0  0  0  0  0  0  0
  -35.5184  152.6884    7.7075 H   0  0  0  0  0  0  0  0  0  0  0  0
  -37.1493  153.4922    7.7559 H   0  0  0  0  0  0  0  0  0  0  0  0
  -34.9520  147.0374    4.6875 H   0  0  0  0  0  0  0  0  0  0  0  0
  -35.5285  145.6069    2.7491 H   0  0  0  0  0  0  0  0  0  0  0  0
  -36.1939  145.2194   -1.8594 H   0  0  0  0  0  0  0  0  0  0  0  0
  -34.5615  146.5144   -3.2287 H   0  0  0  0  0  0  0  0  0  0  0  0
  -34.5291  149.0055   -3.1060 H   0  0  0  0  0  0  0  0  0  0  0  0
  -36.1280  150.2046   -1.6148 H   0  0  0  0  0  0  0  0  0  0  0  0
  -37.7653  148.9176   -0.2439 H   0  0  0  0  0  0  0  0  0  0  0  0
  1  2  1  0
  2  3  1  0
  3  4  2  0
  3  5  1  0
  5  6  1  0
  6  7  2  0
  7  8  1  0
  8  9  2  0
  9 10  1  0
  9 11  1  0
 11 12  1  0
 12 13  2  0
 12 14  1  0
 14 15  2  0
 15 16  1  0
 16 17  1  0
 17 18  1  0
 18 19  2  0
 19 20  1  0
 20 21  1  0
 21 22  1  0
 21 23  1  0
 23 24  2  0
 23 25  1  0
 25 26  1  0
 26 27  1  0
 27 28  1  0
 28 29  1  0
 29 30  1  0
 29 31  1  0
 31 32  1  0
 20 33  2  0
 33 34  1  0
 15 35  1  0
 35 36  2  0
 36 37  1  0
 37 38  2  0
 38 39  1  0
 39 40  2  0
 10  5  2  0
 34 17  2  0
 40 35  1  0
 14  8  1  0
 32 26  1  0
  1 41  1  0
  1 42  1  0
  1 43  1  0
  6 44  1  0
  7 45  1  0
 10 46  1  0
 11 47  1  0
 16 48  1  0
 18 49  1  0
 19 50  1  0
 22 51  1  0
 22 52  1  0
 22 53  1  0
 25 54  1  0
 25 55  1  0
 27 56  1  0
 27 57  1  0
 28 58  1  0
 28 59  1  0
 30 60  1  0
 30 61  1  0
 30 62  1  0
 31 63  1  0
 31 64  1  0
 32 65  1  0
 32 66  1  0
 33 67  1  0
 34 68  1  0
 36 69  1  0
 37 70  1  0
 38 71  1  0
 39 72  1  0
 40 73  1  0
M  END
>  <meeko>  (7) 
{"is_sidechain": false}

>  <vina_affinity_kcal_mol>  (7) 
-7.832

>  <pose_rank>  (7) 
7

$$$$

     RDKit          3D

 73 77  0  0  0  0  0  0  0  0999 V2000
  -41.6980  144.0110   -4.9930 C   0  0  0  0  0  0  0  0  0  0  0  0
  -40.9950  144.3400   -3.7930 O   0  0  0  0  0  0  0  0  0  0  0  0
  -41.8010  144.5860   -2.7320 C   0  0  0  0  0  0  0  0  0  0  0  0
  -42.9980  144.3490   -2.6710 O   0  0  0  0  0  0  0  0  0  0  0  0
  -41.0330  145.1990   -1.6160 C   0  0  0  0  0  0  0  0  0  0  0  0
  -39.7320  145.7200   -1.7910 C   0  0  0  0  0  0  0  0  0  0  0  0
  -39.0300  146.2940   -0.7200 C   0  0  0  0  0  0  0  0  0  0  0  0
  -39.6300  146.3360    0.5280 C   0  0  0  0  0  0  0  0  0  0  0  0
  -40.9280  145.8310    0.6780 C   0  0  0  0  0  0  0  0  0  0  0  0
  -41.6450  145.2600   -0.3580 C   0  0  0  0  0  0  0  0  0  0  0  0
  -41.3800  146.0050    1.9800 N   0  0  0  0  0  0  0  0  0  0  0  0
  -40.4320  146.6360    2.7600 C   0  0  0  0  0  0  0  0  0  0  0  0
  -40.5410  146.9560    3.9300 O   0  0  0  0  0  0  0  0  0  0  0  0
  -39.2360  146.8510    1.8560 C   0  0  0  0  0  0  0  0  0  0  0  0
  -38.1020  147.4130    2.3440 C   0  0  0  0  0  0  0  0  0  0  0  0
  -37.9990  147.8900    3.6490 N   0  0  0  0  0  0  0  0  0  0  0  0
  -37.3760  148.9880    4.2670 C   0  0  0  0  0  0  0  0  0  0  0  0
  -36.0400  148.8390    4.6580 C   0  0  0  0  0  0  0  0  0  0  0  0
  -35.3380  149.8590    5.3230 C   0  0  0  0  0  0  0  0  0  0  0  0
  -35.9400  151.0840    5.6260 C   0  0  0  0  0  0  0  0  0  0  0  0
  -35.2420  152.1330    6.3360 N   0  0  0  0  0  0  0  0  0  0  0  0
  -35.5980  152.3530    7.7390 C   0  0  0  0  0  0  0  0  0  0  0  0
  -34.3290  152.9970    5.6900 C   0  0  0  0  0  0  0  0  0  0  0  0
  -33.8020  152.7490    4.6040 O   0  0  0  0  0  0  0  0  0  0  0  0
  -34.0120  154.3130    6.4430 C   0  0  0  0  0  0  0  0  0  0  0  0
  -34.8210  155.4490    5.9610 N   0  0  0  0  0  0  0  0  0  0  0  0
  -35.6410  156.0230    7.0440 C   0  0  0  0  0  0  0  0  0  0  0  0
  -36.0950  157.4890    6.8050 C   0  0  0  0  0  0  0  0  0  0  0  0
  -36.1800  157.9100    5.3960 N   0  0  0  0  0  0  0  0  0  0  0  0
  -37.2840  157.2260    4.7170 C   0  0  0  0  0  0  0  0  0  0  0  0
  -34.8960  157.6300    4.7140 C   0  0  0  0  0  0  0  0  0  0  0  0
  -34.0180  156.4980    5.3180 C   0  0  0  0  0  0  0  0  0  0  0  0
  -37.2860  151.2200    5.2550 C   0  0  0  0  0  0  0  0  0  0  0  0
  -37.9850  150.1940    4.5900 C   0  0  0  0  0  0  0  0  0  0  0  0
  -36.9600  147.5940    1.4260 C   0  0  0  0  0  0  0  0  0  0  0  0
  -36.8370  148.7670    0.6650 C   0  0  0  0  0  0  0  0  0  0  0  0
  -35.7480  148.9410   -0.1920 C   0  0  0  0  0  0  0  0  0  0  0  0
  -34.7770  147.9450   -0.2940 C   0  0  0  0  0  0  0  0  0  0  0  0
  -34.8920  146.7750    0.4560 C   0  0  0  0  0  0  0  0  0  0  0  0
  -35.9800  146.5980    1.3140 C   0  0  0  0  0  0  0  0  0  0  0  0
  -42.6671  143.5575   -4.7376 H   0  0  0  0  0  0  0  0  0  0  0  0
  -41.8647  144.9246   -5.5825 H   0  0  0  0  0  0  0  0  0  0  0  0
  -41.1033  143.2977   -5.5825 H   0  0  0  0  0  0  0  0  0  0  0  0
  -39.2608  145.6751   -2.7840 H   0  0  0  0  0  0  0  0  0  0  0  0
  -38.0201  146.7038   -0.8689 H   0  0  0  0  0  0  0  0  0  0  0  0
  -42.6603  144.8676   -0.1992 H   0  0  0  0  0  0  0  0  0  0  0  0
  -42.2890  145.7440    2.3320 H   0  0  0  0  0  0  0  0  0  0  0  0
  -38.4230  147.2550    4.3340 H   0  0  0  0  0  0  0  0  0  0  0  0
  -35.5231  147.8933    4.4377 H   0  0  0  0  0  0  0  0  0  0  0  0
  -34.2902  149.6895    5.6119 H   0  0  0  0  0  0  0  0  0  0  0  0
  -34.8417  151.8856    8.3868 H   0  0  0  0  0  0  0  0  0  0  0  0
  -35.6377  153.4333    7.9421 H   0  0  0  0  0  0  0  0  0  0  0  0
  -36.5820  151.9053    7.9421 H   0  0  0  0  0  0  0  0  0  0  0  0
  -34.2153  154.1644    7.5138 H   0  0  0  0  0  0  0  0  0  0  0  0
  -32.9544  154.5552    6.2618 H   0  0  0  0  0  0  0  0  0  0  0  0
  -36.5402  155.4002    7.1602 H   0  0  0  0  0  0  0  0  0  0  0  0
  -35.0057  156.0363    7.9419 H   0  0  0  0  0  0  0  0  0  0  0  0
  -37.0912  157.6119    7.2551 H   0  0  0  0  0  0  0  0  0  0  0  0
  -35.3185  158.1212    7.2604 H   0  0  0  0  0  0  0  0  0  0  0  0
  -37.9687  156.8018    5.4662 H   0  0  0  0  0  0  0  0  0  0  0  0
  -37.8290  157.9449    4.0876 H   0  0  0  0  0  0  0  0  0  0  0  0
  -36.8830  156.4179    4.0876 H   0  0  0  0  0  0  0  0  0  0  0  0
  -35.1239  157.3560    3.6733 H   0  0  0  0  0  0  0  0  0  0  0  0
  -34.3018  158.5488    4.8270 H   0  0  0  0  0  0  0  0  0  0  0  0
  -33.4237  156.0435    4.5116 H   0  0  0  0  0  0  0  0  0  0  0  0
  -33.3746  156.9476    6.0887 H   0  0  0  0  0  0  0  0  0  0  0  0
  -37.8118  152.1570    5.4908 H   0  0  0  0  0  0  0  0  0  0  0  0
  -39.0395  150.3516    4.3196 H   0  0  0  0  0  0  0  0  0  0  0  0
  -37.6022  149.5532    0.7440 H   0  0  0  0  0  0  0  0  0  0  0  0
  -35.6562  149.8624   -0.7858 H   0  0  0  0  0  0  0  0  0  0  0  0
  -33.9184  148.0827   -0.9677 H   0  0  0  0  0  0  0  0  0  0  0  0
  -34.1253  145.9908    0.3719 H   0  0  0  0  0  0  0  0  0  0  0  0
  -36.0681  145.6737    1.9039 H   0  0  0  0  0  0  0  0  0  0  0  0
  1  2  1  0
  2  3  1  0
  3  4  2  0
  3  5  1  0
  5  6  1  0
  6  7  2  0
  7  8  1  0
  8  9  2  0
  9 10  1  0
  9 11  1  0
 11 12  1  0
 12 13  2  0
 12 14  1  0
 14 15  2  0
 15 16  1  0
 16 17  1  0
 17 18  1  0
 18 19  2  0
 19 20  1  0
 20 21  1  0
 21 22  1  0
 21 23  1  0
 23 24  2  0
 23 25  1  0
 25 26  1  0
 26 27  1  0
 27 28  1  0
 28 29  1  0
 29 30  1  0
 29 31  1  0
 31 32  1  0
 20 33  2  0
 33 34  1  0
 15 35  1  0
 35 36  2  0
 36 37  1  0
 37 38  2  0
 38 39  1  0
 39 40  2  0
 10  5  2  0
 34 17  2  0
 40 35  1  0
 14  8  1  0
 32 26  1  0
  1 41  1  0
  1 42  1  0
  1 43  1  0
  6 44  1  0
  7 45  1  0
 10 46  1  0
 11 47  1  0
 16 48  1  0
 18 49  1  0
 19 50  1  0
 22 51  1  0
 22 52  1  0
 22 53  1  0
 25 54  1  0
 25 55  1  0
 27 56  1  0
 27 57  1  0
 28 58  1  0
 28 59  1  0
 30 60  1  0
 30 61  1  0
 30 62  1  0
 31 63  1  0
 31 64  1  0
 32 65  1  0
 32 66  1  0
 33 67  1  0
 34 68  1  0
 36 69  1  0
 37 70  1  0
 38 71  1  0
 39 72  1  0
 40 73  1  0
M  END
>  <meeko>  (8) 
{"is_sidechain": false}

>  <vina_affinity_kcal_mol>  (8) 
-7.703

>  <pose_rank>  (8) 
8

$$$$

     RDKit          3D

 73 77  0  0  0  0  0  0  0  0999 V2000
  -41.6050  146.1440   -7.4360 C   0  0  0  0  0  0  0  0  0  0  0  0
  -42.4420  145.6590   -6.3840 O   0  0  0  0  0  0  0  0  0  0  0  0
  -42.6540  146.5550   -5.3900 C   0  0  0  0  0  0  0  0  0  0  0  0
  -43.5010  147.4350   -5.3890 O   0  0  0  0  0  0  0  0  0  0  0  0
  -41.7050  146.3330   -4.2670 C   0  0  0  0  0  0  0  0  0  0  0  0
  -40.5190  147.0860   -4.1210 C   0  0  0  0  0  0  0  0  0  0  0  0
  -39.6410  146.8570   -3.0500 C   0  0  0  0  0  0  0  0  0  0  0  0
  -39.9480  145.8650   -2.1330 C   0  0  0  0  0  0  0  0  0  0  0  0
  -41.1380  145.1410   -2.2850 C   0  0  0  0  0  0  0  0  0  0  0  0
  -42.0230  145.3440   -3.3280 C   0  0  0  0  0  0  0  0  0  0  0  0
  -41.3000  144.2300   -1.2490 N   0  0  0  0  0  0  0  0  0  0  0  0
  -40.2520  144.3000   -0.3530 C   0  0  0  0  0  0  0  0  0  0  0  0
  -40.1200  143.6550    0.6720 O   0  0  0  0  0  0  0  0  0  0  0  0
  -39.3080  145.3460   -0.9080 C   0  0  0  0  0  0  0  0  0  0  0  0
  -38.1390  145.6180   -0.2740 C   0  0  0  0  0  0  0  0  0  0  0  0
  -37.7840  145.0270    0.9370 N   0  0  0  0  0  0  0  0  0  0  0  0
  -37.3060  145.4910    2.1740 C   0  0  0  0  0  0  0  0  0  0  0  0
  -35.9460  145.3060    2.4550 C   0  0  0  0  0  0  0  0  0  0  0  0
  -35.3770  145.6930    3.6800 C   0  0  0  0  0  0  0  0  0  0  0  0
  -36.1410  146.2900    4.6860 C   0  0  0  0  0  0  0  0  0  0  0  0
  -35.5780  146.6670    5.9640 N   0  0  0  0  0  0  0  0  0  0  0  0
  -35.7490  145.7350    7.0800 C   0  0  0  0  0  0  0  0  0  0  0  0
  -34.9790  147.9290    6.1760 C   0  0  0  0  0  0  0  0  0  0  0  0
  -33.8770  148.2490    5.7250 O   0  0  0  0  0  0  0  0  0  0  0  0
  -35.8030  148.9210    7.0340 C   0  0  0  0  0  0  0  0  0  0  0  0
  -35.5710  150.3280    6.6530 N   0  0  0  0  0  0  0  0  0  0  0  0
  -36.5000  150.7570    5.5910 C   0  0  0  0  0  0  0  0  0  0  0  0
  -36.7090  152.2930    5.4970 C   0  0  0  0  0  0  0  0  0  0  0  0
  -35.6040  153.1220    6.0100 N   0  0  0  0  0  0  0  0  0  0  0  0
  -34.4270  153.0080    5.1460 C   0  0  0  0  0  0  0  0  0  0  0  0
  -35.2750  152.7110    7.3950 C   0  0  0  0  0  0  0  0  0  0  0  0
  -35.6360  151.2520    7.7930 C   0  0  0  0  0  0  0  0  0  0  0  0
  -37.5080  146.4510    4.4110 C   0  0  0  0  0  0  0  0  0  0  0  0
  -38.0740  146.0600    3.1830 C   0  0  0  0  0  0  0  0  0  0  0  0
  -37.2490  146.6400   -0.8570 C   0  0  0  0  0  0  0  0  0  0  0  0
  -37.3140  147.9740   -0.4240 C   0  0  0  0  0  0  0  0  0  0  0  0
  -36.4610  148.9350   -0.9680 C   0  0  0  0  0  0  0  0  0  0  0  0
  -35.5370  148.5710   -1.9480 C   0  0  0  0  0  0  0  0  0  0  0  0
  -35.4660  147.2490   -2.3870 C   0  0  0  0  0  0  0  0  0  0  0  0
  -36.3190  146.2850   -1.8450 C   0  0  0  0  0  0  0  0  0  0  0  0
  -40.7297  146.6512   -7.0039 H   0  0  0  0  0  0  0  0  0  0  0  0
  -41.2702  145.3000   -8.0569 H   0  0  0  0  0  0  0  0  0  0  0  0
  -42.1708  146.8542   -8.0569 H   0  0  0  0  0  0  0  0  0  0  0  0
  -40.2792  147.8654   -4.8593 H   0  0  0  0  0  0  0  0  0  0  0  0
  -38.7244  147.4553   -2.9407 H   0  0  0  0  0  0  0  0  0  0  0  0
  -42.9443  144.7496   -3.4169 H   0  0  0  0  0  0  0  0  0  0  0  0
  -42.0840  143.6090   -1.1220 H   0  0  0  0  0  0  0  0  0  0  0  0
  -37.8150  144.0020    0.8990 H   0  0  0  0  0  0  0  0  0  0  0  0
  -35.3030  144.8429    1.6921 H   0  0  0  0  0  0  0  0  0  0  0  0
  -34.3040  145.5218    3.8512 H   0  0  0  0  0  0  0  0  0  0  0  0
  -35.6492  146.2792    8.0307 H   0  0  0  0  0  0  0  0  0  0  0  0
  -36.7466  145.2749    7.0239 H   0  0  0  0  0  0  0  0  0  0  0  0
  -34.9798  144.9507    7.0239 H   0  0  0  0  0  0  0  0  0  0  0  0
  -36.8717  148.6932    6.9074 H   0  0  0  0  0  0  0  0  0  0  0  0
  -35.4844  148.8018    8.0801 H   0  0  0  0  0  0  0  0  0  0  0  0
  -36.1050  150.4048    4.6267 H   0  0  0  0  0  0  0  0  0  0  0  0
  -37.4799  150.3236    5.8399 H   0  0  0  0  0  0  0  0  0  0  0  0
  -36.8598  152.5491    4.4379 H   0  0  0  0  0  0  0  0  0  0  0  0
  -37.5741  152.5171    6.1384 H   0  0  0  0  0  0  0  0  0  0  0  0
  -33.5233  152.9205    5.7671 H   0  0  0  0  0  0  0  0  0  0  0  0
  -34.5234  152.1150    4.5110 H   0  0  0  0  0  0  0  0  0  0  0  0
  -34.3502  153.9029    4.5110 H   0  0  0  0  0  0  0  0  0  0  0  0
  -34.1906  152.8354    7.5313 H   0  0  0  0  0  0  0  0  0  0  0  0
  -35.8946  153.3496    8.0418 H   0  0  0  0  0  0  0  0  0  0  0  0
  -34.9298  150.9113    8.5645 H   0  0  0  0  0  0  0  0  0  0  0  0
  -36.6710  151.2524    8.1657 H   0  0  0  0  0  0  0  0  0  0  0  0
  -38.1572  146.8966    5.1791 H   0  0  0  0  0  0  0  0  0  0  0  0
  -39.1513  146.2085    3.0177 H   0  0  0  0  0  0  0  0  0  0  0  0
  -38.0416  148.2633    0.3486 H   0  0  0  0  0  0  0  0  0  0  0  0
  -36.5170  149.9785   -0.6246 H   0  0  0  0  0  0  0  0  0  0  0  0
  -34.8631  149.3282   -2.3753 H   0  0  0  0  0  0  0  0  0  0  0  0
  -34.7375  146.9654   -3.1608 H   0  0  0  0  0  0  0  0  0  0  0  0
  -36.2612  145.2435   -2.1943 H   0  0  0  0  0  0  0  0  0  0  0  0
  1  2  1  0
  2  3  1  0
  3  4  2  0
  3  5  1  0
  5  6  1  0
  6  7  2  0
  7  8  1  0
  8  9  2  0
  9 10  1  0
  9 11  1  0
 11 12  1  0
 12 13  2  0
 12 14  1  0
 14 15  2  0
 15 16  1  0
 16 17  1  0
 17 18  1  0
 18 19  2  0
 19 20  1  0
 20 21  1  0
 21 22  1  0
 21 23  1  0
 23 24  2  0
 23 25  1  0
 25 26  1  0
 26 27  1  0
 27 28  1  0
 28 29  1  0
 29 30  1  0
 29 31  1  0
 31 32  1  0
 20 33  2  0
 33 34  1  0
 15 35  1  0
 35 36  2  0
 36 37  1  0
 37 38  2  0
 38 39  1  0
 39 40  2  0
 10  5  2  0
 34 17  2  0
 40 35  1  0
 14  8  1  0
 32 26  1  0
  1 41  1  0
  1 42  1  0
  1 43  1  0
  6 44  1  0
  7 45  1  0
 10 46  1  0
 11 47  1  0
 16 48  1  0
 18 49  1  0
 19 50  1  0
 22 51  1  0
 22 52  1  0
 22 53  1  0
 25 54  1  0
 25 55  1  0
 27 56  1  0
 27 57  1  0
 28 58  1  0
 28 59  1  0
 30 60  1  0
 30 61  1  0
 30 62  1  0
 31 63  1  0
 31 64  1  0
 32 65  1  0
 32 66  1  0
 33 67  1  0
 34 68  1  0
 36 69  1  0
 37 70  1  0
 38 71  1  0
 39 72  1  0
 40 73  1  0
M  END
>  <meeko>  (9) 
{"is_sidechain": false}

>  <vina_affinity_kcal_mol>  (9) 
-7.619

>  <pose_rank>  (9) 
9

$$$$

     RDKit          3D

 73 77  0  0  0  0  0  0  0  0999 V2000
  -42.3520  144.9260   -3.5790 C   0  0  0  0  0  0  0  0  0  0  0  0
  -40.9730  145.1510   -3.2790 O   0  0  0  0  0  0  0  0  0  0  0  0
  -40.5770  146.4370   -3.4380 C   0  0  0  0  0  0  0  0  0  0  0  0
  -40.7640  147.1260   -4.4290 O   0  0  0  0  0  0  0  0  0  0  0  0
  -39.8650  146.9250   -2.2270 C   0  0  0  0  0  0  0  0  0  0  0  0
  -40.5360  147.1900   -1.0130 C   0  0  0  0  0  0  0  0  0  0  0  0
  -39.8390  147.6490    0.1160 C   0  0  0  0  0  0  0  0  0  0  0  0
  -38.4720  147.8520    0.0220 C   0  0  0  0  0  0  0  0  0  0  0  0
  -37.8220  147.5660   -1.1860 C   0  0  0  0  0  0  0  0  0  0  0  0
  -38.4800  147.1120   -2.3140 C   0  0  0  0  0  0  0  0  0  0  0  0
  -36.4540  147.7810   -1.0750 N   0  0  0  0  0  0  0  0  0  0  0  0
  -36.1140  148.2040    0.1950 C   0  0  0  0  0  0  0  0  0  0  0  0
  -34.9960  148.4440    0.6130 O   0  0  0  0  0  0  0  0  0  0  0  0
  -37.4200  148.3000    0.9570 C   0  0  0  0  0  0  0  0  0  0  0  0
  -37.4320  148.7430    2.2390 C   0  0  0  0  0  0  0  0  0  0  0  0
  -36.2680  149.0480    2.9420 N   0  0  0  0  0  0  0  0  0  0  0  0
  -35.8530  148.9510    4.2810 C   0  0  0  0  0  0  0  0  0  0  0  0
  -34.9680  147.9180    4.6120 C   0  0  0  0  0  0  0  0  0  0  0  0
  -34.5260  147.7070    5.9290 C   0  0  0  0  0  0  0  0  0  0  0  0
  -34.9470  148.5230    6.9830 C   0  0  0  0  0  0  0  0  0  0  0  0
  -34.5260  148.3020    8.3490 N   0  0  0  0  0  0  0  0  0  0  0  0
  -34.4770  149.4640    9.2380 C   0  0  0  0  0  0  0  0  0  0  0  0
  -34.0700  147.0420    8.7990 C   0  0  0  0  0  0  0  0  0  0  0  0
  -32.8800  146.7240    8.8540 O   0  0  0  0  0  0  0  0  0  0  0  0
  -35.1770  146.0500    9.2310 C   0  0  0  0  0  0  0  0  0  0  0  0
  -36.5340  146.5870    9.0170 N   0  0  0  0  0  0  0  0  0  0  0  0
  -37.3510  145.6750    8.1960 C   0  0  0  0  0  0  0  0  0  0  0  0
  -38.8850  145.8610    8.3550 C   0  0  0  0  0  0  0  0  0  0  0  0
  -39.3270  147.1980    8.7870 N   0  0  0  0  0  0  0  0  0  0  0  0
  -39.0950  148.1860    7.7310 C   0  0  0  0  0  0  0  0  0  0  0  0
  -38.6110  147.5820   10.0260 C   0  0  0  0  0  0  0  0  0  0  0  0
  -37.2310  146.9090   10.2700 C   0  0  0  0  0  0  0  0  0  0  0  0
  -35.8540  149.5410    6.6510 C   0  0  0  0  0  0  0  0  0  0  0  0
  -36.2950  149.7490    5.3300 C   0  0  0  0  0  0  0  0  0  0  0  0
  -38.7300  148.8270    2.9370 C   0  0  0  0  0  0  0  0  0  0  0  0
  -39.2390  147.7170    3.6310 C   0  0  0  0  0  0  0  0  0  0  0  0
  -40.4600  147.8050    4.3020 C   0  0  0  0  0  0  0  0  0  0  0  0
  -41.1800  149.0000    4.2840 C   0  0  0  0  0  0  0  0  0  0  0  0
  -40.6830  150.1070    3.5960 C   0  0  0  0  0  0  0  0  0  0  0  0
  -39.4620  150.0230    2.9230 C   0  0  0  0  0  0  0  0  0  0  0  0
  -42.9207  144.8332   -2.6420 H   0  0  0  0  0  0  0  0  0  0  0  0
  -42.7430  145.7722   -4.1630 H   0  0  0  0  0  0  0  0  0  0  0  0
  -42.4538  143.9994   -4.1630 H   0  0  0  0  0  0  0  0  0  0  0  0
  -41.6231  147.0342   -0.9509 H   0  0  0  0  0  0  0  0  0  0  0  0
  -40.3697  147.8442    1.0596 H   0  0  0  0  0  0  0  0  0  0  0  0
  -37.9349  146.9050   -3.2467 H   0  0  0  0  0  0  0  0  0  0  0  0
  -35.7690  147.6260   -1.7990 H   0  0  0  0  0  0  0  0  0  0  0  0
  -35.5680  149.5160    2.3570 H   0  0  0  0  0  0  0  0  0  0  0  0
  -34.6072  147.2503    3.8158 H   0  0  0  0  0  0  0  0  0  0  0  0
  -33.8316  146.8793    6.1357 H   0  0  0  0  0  0  0  0  0  0  0  0
  -34.4913  149.1258   10.2846 H   0  0  0  0  0  0  0  0  0  0  0  0
  -33.5541  150.0318    9.0487 H   0  0  0  0  0  0  0  0  0  0  0  0
  -35.3488  150.1075    9.0487 H   0  0  0  0  0  0  0  0  0  0  0  0
  -35.0682  145.1243    8.6469 H   0  0  0  0  0  0  0  0  0  0  0  0
  -35.0575  145.8657   10.3088 H   0  0  0  0  0  0  0  0  0  0  0  0
  -37.0930  145.8403    7.1395 H   0  0  0  0  0  0  0  0  0  0  0  0
  -37.1230  144.6558    8.5414 H   0  0  0  0  0  0  0  0  0  0  0  0
  -39.3534  145.6485    7.3826 H   0  0  0  0  0  0  0  0  0  0  0  0
  -39.1880  145.1723    9.1574 H   0  0  0  0  0  0  0  0  0  0  0  0
  -38.8660  149.1613    8.1853 H   0  0  0  0  0  0  0  0  0  0  0  0
  -38.2480  147.8641    7.1073 H   0  0  0  0  0  0  0  0  0  0  0  0
  -39.9967  148.2747    7.1073 H   0  0  0  0  0  0  0  0  0  0  0  0
  -38.4509  148.6699    9.9953 H   0  0  0  0  0  0  0  0  0  0  0  0
  -39.2520  147.2360   10.8503 H   0  0  0  0  0  0  0  0  0  0  0  0
  -36.6027  147.5948   10.8573 H   0  0  0  0  0  0  0  0  0  0  0  0
  -37.4089  145.9652   10.8063 H   0  0  0  0  0  0  0  0  0  0  0  0
  -36.2326  150.1975    7.4482 H   0  0  0  0  0  0  0  0  0  0  0  0
  -37.0062  150.5623    5.1232 H   0  0  0  0  0  0  0  0  0  0  0  0
  -38.6729  146.7740    3.6459 H   0  0  0  0  0  0  0  0  0  0  0  0
  -40.8541  146.9330    4.8444 H   0  0  0  0  0  0  0  0  0  0  0  0
  -42.1417  149.0693    4.8135 H   0  0  0  0  0  0  0  0  0  0  0  0
  -41.2535  151.0474    3.5835 H   0  0  0  0  0  0  0  0  0  0  0  0
  -39.0735  150.8975    2.3805 H   0  0  0  0  0  0  0  0  0  0  0  0
  1  2  1  0
  2  3  1  0
  3  4  2  0
  3  5  1  0
  5  6  1  0
  6  7  2  0
  7  8  1  0
  8  9  2  0
  9 10  1  0
  9 11  1  0
 11 12  1  0
 12 13  2  0
 12 14  1  0
 14 15  2  0
 15 16  1  0
 16 17  1  0
 17 18  1  0
 18 19  2  0
 19 20  1  0
 20 21  1  0
 21 22  1  0
 21 23  1  0
 23 24  2  0
 23 25  1  0
 25 26  1  0
 26 27  1  0
 27 28  1  0
 28 29  1  0
 29 30  1  0
 29 31  1  0
 31 32  1  0
 20 33  2  0
 33 34  1  0
 15 35  1  0
 35 36  2  0
 36 37  1  0
 37 38  2  0
 38 39  1  0
 39 40  2  0
 10  5  2  0
 34 17  2  0
 40 35  1  0
 14  8  1  0
 32 26  1  0
  1 41  1  0
  1 42  1  0
  1 43  1  0
  6 44  1  0
  7 45  1  0
 10 46  1  0
 11 47  1  0
 16 48  1  0
 18 49  1  0
 19 50  1  0
 22 51  1  0
 22 52  1  0
 22 53  1  0
 25 54  1  0
 25 55  1  0
 27 56  1  0
 27 57  1  0
 28 58  1  0
 28 59  1  0
 30 60  1  0
 30 61  1  0
 30 62  1  0
 31 63  1  0
 31 64  1  0
 32 65  1  0
 32 66  1  0
 33 67  1  0
 34 68  1  0
 36 69  1  0
 37 70  1  0
 38 71  1  0
 39 72  1  0
 40 73  1  0
M  END
>  <meeko>  (10) 
{"is_sidechain": false}

>  <vina_affinity_kcal_mol>  (10) 
-7.607

>  <pose_rank>  (10) 
10

$$$$
