
     RDKit          3D

 73 77  0  0  0  0  0  0  0  0999 V2000
  -34.1310  156.8020    6.5980 C   0  0  0  0  0  0  0  0  0  0  0  0
  -34.6280  155.7460    7.4210 O   0  0  0  0  0  0  0  0  0  0  0  0
  -35.9410  155.4680    7.2270 C   0  0  0  0  0  0  0  0  0  0  0  0
  -36.8700  156.2400    7.4030 O   0  0  0  0  0  0  0  0  0  0  0  0
  -36.1210  154.0670    6.7590 C   0  0  0  0  0  0  0  0  0  0  0  0
  -37.2450  153.6610    6.0080 C   0  0  0  0  0  0  0  0  0  0  0  0
  -37.3890  152.3320    5.5790 C   0  0  0  0  0  0  0  0  0  0  0  0
  -36.4110  151.4110    5.9110 C   0  0  0  0  0  0  0  0  0  0  0  0
  -35.2930  151.8390    6.6410 C   0  0  0  0  0  0  0  0  0  0  0  0
  -35.1230  153.1390    7.0770 C   0  0  0  0  0  0  0  0  0  0  0  0
  -34.3980  150.7930    6.8330 N   0  0  0  0  0  0  0  0  0  0  0  0
  -34.8520  149.6300    6.2430 C   0  0  0  0  0  0  0  0  0  0  0  0
  -34.2800  148.5540    6.2100 O   0  0  0  0  0  0  0  0  0  0  0  0
  -36.2000  149.9730    5.6460 C   0  0  0  0  0  0  0  0  0  0  0  0
  -36.9390  149.0170    5.0310 C   0  0  0  0  0  0  0  0  0  0  0  0
  -36.4780  147.7160    4.8380 N   0  0  0  0  0  0  0  0  0  0  0  0
  -35.6250  147.0880    3.9170 C   0  0  0  0  0  0  0  0  0  0  0  0
  -35.3130  145.7330    3.8930 C   0  0  0  0  0  0  0  0  0  0  0  0
  -34.4840  145.1850    2.8960 C   0  0  0  0  0  0  0  0  0  0  0  0
  -33.9450  145.9670    1.8630 C   0  0  0  0  0  0  0  0  0  0  0  0
  -33.0740  145.3950    0.8580 N   0  0  0  0  0  0  0  0  0  0  0  0
  -32.3270  144.1900    1.2240 C   0  0  0  0  0  0  0  0  0  0  0  0
  -33.0150  145.9050   -0.4580 C   0  0  0  0  0  0  0  0  0  0  0  0
  -32.1590  146.7060   -0.8410 O   0  0  0  0  0  0  0  0  0  0  0  0
  -34.1190  145.4000   -1.4200 C   0  0  0  0  0  0  0  0  0  0  0  0
  -35.4290  146.0660   -1.2970 N   0  0  0  0  0  0  0  0  0  0  0  0
  -36.5700  145.2240   -1.6690 C   0  0  0  0  0  0  0  0  0  0  0  0
  -37.9320  145.8880   -1.3260 C   0  0  0  0  0  0  0  0  0  0  0  0
  -37.9930  147.3650   -1.4260 N   0  0  0  0  0  0  0  0  0  0  0  0
  -37.8790  147.9830   -0.1040 C   0  0  0  0  0  0  0  0  0  0  0  0
  -36.9240  147.8440   -2.3240 C   0  0  0  0  0  0  0  0  0  0  0  0
  -35.4890  147.3840   -1.9540 C   0  0  0  0  0  0  0  0  0  0  0  0
  -34.2520  147.3310    1.8970 C   0  0  0  0  0  0  0  0  0  0  0  0
  -35.0780  147.8740    2.8940 C   0  0  0  0  0  0  0  0  0  0  0  0
  -38.2530  149.3960    4.4740 C   0  0  0  0  0  0  0  0  0  0  0  0
  -38.3760  149.7650    3.1250 C   0  0  0  0  0  0  0  0  0  0  0  0
  -39.6230  150.1110    2.6000 C   0  0  0  0  0  0  0  0  0  0  0  0
  -40.7530  150.0910    3.4170 C   0  0  0  0  0  0  0  0  0  0  0  0
  -40.6400  149.7280    4.7600 C   0  0  0  0  0  0  0  0  0  0  0  0
  -39.3950  149.3810    5.2870 C   0  0  0  0  0  0  0  0  0  0  0  0
  -33.7489  157.6139    7.2343 H   0  0  0  0  0  0  0  0  0  0  0  0
  -33.3180  156.4203    5.9629 H   0  0  0  0  0  0  0  0  0  0  0  0
  -34.9433  157.1852    5.9629 H   0  0  0  0  0  0  0  0  0  0  0  0
  -38.0211  154.3982    5.7546 H   0  0  0  0  0  0  0  0  0  0  0  0
  -38.2655  152.0276    4.9882 H   0  0  0  0  0  0  0  0  0  0  0  0
  -34.2342  153.4342    7.6539 H   0  0  0  0  0  0  0  0  0  0  0  0
  -33.5100  150.8530    7.3070 H   0  0  0  0  0  0  0  0  0  0  0  0
  -36.8820  147.0510    5.5080 H   0  0  0  0  0  0  0  0  0  0  0  0
  -35.7239  145.0736    4.6718 H   0  0  0  0  0  0  0  0  0  0  0  0
  -34.2515  144.1103    2.9277 H   0  0  0  0  0  0  0  0  0  0  0  0
  -32.2765  144.1086    2.3198 H   0  0  0  0  0  0  0  0  0  0  0  0
  -32.8350  143.3049    0.8136 H   0  0  0  0  0  0  0  0  0  0  0  0
  -31.3083  144.2513    0.8136 H   0  0  0  0  0  0  0  0  0  0  0  0
  -33.7617  145.5451   -2.4502 H   0  0  0  0  0  0  0  0  0  0  0  0
  -34.2918  144.3474   -1.1514 H   0  0  0  0  0  0  0  0  0  0  0  0
  -36.5317  145.0353   -2.7520 H   0  0  0  0  0  0  0  0  0  0  0  0
  -36.4984  144.2887   -1.0944 H   0  0  0  0  0  0  0  0  0  0  0  0
  -38.6867  145.4755   -2.0118 H   0  0  0  0  0  0  0  0  0  0  0  0
  -38.1061  145.6615   -0.2638 H   0  0  0  0  0  0  0  0  0  0  0  0
  -38.0204  147.2167    0.6724 H   0  0  0  0  0  0  0  0  0  0  0  0
  -36.8822  148.4354    0.0045 H   0  0  0  0  0  0  0  0  0  0  0  0
  -38.6487  148.7613    0.0045 H   0  0  0  0  0  0  0  0  0  0  0  0
  -37.1455  147.4819   -3.3388 H   0  0  0  0  0  0  0  0  0  0  0  0
  -36.9231  148.9405   -2.2366 H   0  0  0  0  0  0  0  0  0  0  0  0
  -34.8927  147.3370   -2.8772 H   0  0  0  0  0  0  0  0  0  0  0  0
  -35.0981  148.1159   -1.2318 H   0  0  0  0  0  0  0  0  0  0  0  0
  -33.8364  147.9943    1.1241 H   0  0  0  0  0  0  0  0  0  0  0  0
  -35.3029  148.9505    2.8714 H   0  0  0  0  0  0  0  0  0  0  0  0
  -37.4861  149.7817    2.4786 H   0  0  0  0  0  0  0  0  0  0  0  0
  -39.7139  150.3992    1.5423 H   0  0  0  0  0  0  0  0  0  0  0  0
  -41.7352  150.3618    3.0023 H   0  0  0  0  0  0  0  0  0  0  0  0
  -41.5323  149.7154    5.4032 H   0  0  0  0  0  0  0  0  0  0  0  0
  -39.3095  149.0943    6.3455 H   0  0  0  0  0  0  0  0  0  0  0  0
  1  2  1  0
  2  3  1  0
  3  4  2  0
  3  5  1  0
  5  6  1  0
  6  7  2  0
  7  8  1  0
  8  9  2  0
  9 10  1  0
  9 11  1  0
 11 12  1  0
 12 13  2  0
 12 14  1  0
 14 15  2  0
 15 16  1  0
 16 17  1  0
 17 18  1  0
 18 19  2  0
 19 20  1  0
 20 21  1  0
 21 22  1  0
 21 23  1  0
 23 24  2  0
 23 25  1  0
 25 26  1  0
 26 27  1  0
 27 28  1  0
 28 29  1  0
 29 30  1  0
 29 31  1  0
 31 32  1  0
 20 33  2  0
 33 34  1  0
 15 35  1  0
 35 36  2  0
 36 37  1  0
 37 38  2  0
 38 39  1  0
 39 40  2  0
 10  5  2  0
 34 17  2  0
 40 35  1  0
 14  8  1  0
 32 26  1  0
  1 41  1  0
  1 42  1  0
  1 43  1  0
  6 44  1  0
  7 45  1  0
 10 46  1  0
 11 47  1  0
 16 48  1  0
 18 49  1  0
 19 50  1  0
 22 51  1  0
 22 52  1  0
 22 53  1  0
 25 54  1  0
 25 55  1  0
 27 56  1  0
 27 57  1  0
 28 58  1  0
 28 59  1  0
 30 60  1  0
 30 61  1  0
 30 62  1  0
 31 63  1  0
 31 64  1  0
 32 65  1  0
 32 66  1  0
 33 67  1  0
 34 68  1  0
 36 69  1  0
 37 70  1  0
 38 71  1  0
 39 72  1  0
 40 73  1  0
M  END
>  <meeko>  (1) 
{"is_sidechain": false}

>  <vina_affinity_kcal_mol>  (1) 
-8.502

>  <pose_rank>  (1) 
1

$$$$

     RDKit          3D

 73 77  0  0  0  0  0  0  0  0999 V2000
  -34.0520  156.8390    6.4980 C   0  0  0  0  0  0  0  0  0  0  0  0
  -34.7570  155.8940    7.3050 O   0  0  0  0  0  0  0  0  0  0  0  0
  -36.0150  155.6310    6.8730 C   0  0  0  0  0  0  0  0  0  0  0  0
  -36.9170  156.4450    6.7590 O   0  0  0  0  0  0  0  0  0  0  0  0
  -36.1710  154.1880    6.5460 C   0  0  0  0  0  0  0  0  0  0  0  0
  -37.2500  153.7000    5.7790 C   0  0  0  0  0  0  0  0  0  0  0  0
  -37.3720  152.3330    5.4840 C   0  0  0  0  0  0  0  0  0  0  0  0
  -36.4160  151.4560    5.9670 C   0  0  0  0  0  0  0  0  0  0  0  0
  -35.3410  151.9630    6.7100 C   0  0  0  0  0  0  0  0  0  0  0  0
  -35.1940  153.3020    7.0170 C   0  0  0  0  0  0  0  0  0  0  0  0
  -34.4610  150.9460    7.0620 N   0  0  0  0  0  0  0  0  0  0  0  0
  -34.8820  149.7260    6.5730 C   0  0  0  0  0  0  0  0  0  0  0  0
  -34.3120  148.6560    6.6860 O   0  0  0  0  0  0  0  0  0  0  0  0
  -36.1930  149.9990    5.8670 C   0  0  0  0  0  0  0  0  0  0  0  0
  -36.8980  148.9800    5.3140 C   0  0  0  0  0  0  0  0  0  0  0  0
  -36.4290  147.6690    5.2860 N   0  0  0  0  0  0  0  0  0  0  0  0
  -35.7640  146.8680    4.3440 C   0  0  0  0  0  0  0  0  0  0  0  0
  -35.7480  145.4780    4.3270 C   0  0  0  0  0  0  0  0  0  0  0  0
  -35.0910  144.7610    3.3090 C   0  0  0  0  0  0  0  0  0  0  0  0
  -34.4380  145.4050    2.2470 C   0  0  0  0  0  0  0  0  0  0  0  0
  -33.7460  144.6550    1.2190 N   0  0  0  0  0  0  0  0  0  0  0  0
  -32.2900  144.5500    1.3300 C   0  0  0  0  0  0  0  0  0  0  0  0
  -34.4420  143.9590    0.2050 C   0  0  0  0  0  0  0  0  0  0  0  0
  -34.9290  142.8370    0.3600 O   0  0  0  0  0  0  0  0  0  0  0  0
  -34.5560  144.6960   -1.1520 C   0  0  0  0  0  0  0  0  0  0  0  0
  -35.3120  145.9620   -1.1310 N   0  0  0  0  0  0  0  0  0  0  0  0
  -36.7270  145.8230   -1.4880 C   0  0  0  0  0  0  0  0  0  0  0  0
  -37.5280  147.1340   -1.2500 C   0  0  0  0  0  0  0  0  0  0  0  0
  -36.7970  148.4050   -1.4570 N   0  0  0  0  0  0  0  0  0  0  0  0
  -36.3680  148.9760   -0.1800 C   0  0  0  0  0  0  0  0  0  0  0  0
  -35.6400  148.1700   -2.3430 C   0  0  0  0  0  0  0  0  0  0  0  0
  -34.6660  147.0520   -1.8820 C   0  0  0  0  0  0  0  0  0  0  0  0
  -34.4460  146.8030    2.2740 C   0  0  0  0  0  0  0  0  0  0  0  0
  -35.1000  147.5150    3.2920 C   0  0  0  0  0  0  0  0  0  0  0  0
  -38.1760  149.2930    4.6460 C   0  0  0  0  0  0  0  0  0  0  0  0
  -39.3600  149.4110    5.3910 C   0  0  0  0  0  0  0  0  0  0  0  0
  -40.5650  149.7180    4.7560 C   0  0  0  0  0  0  0  0  0  0  0  0
  -40.5960  149.9110    3.3750 C   0  0  0  0  0  0  0  0  0  0  0  0
  -39.4240  149.7930    2.6260 C   0  0  0  0  0  0  0  0  0  0  0  0
  -38.2180  149.4860    3.2580 C   0  0  0  0  0  0  0  0  0  0  0  0
  -33.5208  157.5510    7.1467 H   0  0  0  0  0  0  0  0  0  0  0  0
  -33.3263  156.3097    5.8630 H   0  0  0  0  0  0  0  0  0  0  0  0
  -34.7661  157.3838    5.8630 H   0  0  0  0  0  0  0  0  0  0  0  0
  -38.0090  154.4031    5.4056 H   0  0  0  0  0  0  0  0  0  0  0  0
  -38.2135  151.9647    4.8789 H   0  0  0  0  0  0  0  0  0  0  0  0
  -34.3397  153.6596    7.6105 H   0  0  0  0  0  0  0  0  0  0  0  0
  -33.6010  151.0600    7.5780 H   0  0  0  0  0  0  0  0  0  0  0  0
  -36.6490  147.1520    6.1460 H   0  0  0  0  0  0  0  0  0  0  0  0
  -36.2608  144.9253    5.1279 H   0  0  0  0  0  0  0  0  0  0  0  0
  -35.0895  143.6617    3.3473 H   0  0  0  0  0  0  0  0  0  0  0  0
  -32.0038  144.5294    2.3919 H   0  0  0  0  0  0  0  0  0  0  0  0
  -31.9507  143.6251    0.8407 H   0  0  0  0  0  0  0  0  0  0  0  0
  -31.8215  145.4167    0.8407 H   0  0  0  0  0  0  0  0  0  0  0  0
  -33.5372  144.9166   -1.5033 H   0  0  0  0  0  0  0  0  0  0  0  0
  -35.1197  144.0213   -1.8130 H   0  0  0  0  0  0  0  0  0  0  0  0
  -36.7984  145.5533   -2.5520 H   0  0  0  0  0  0  0  0  0  0  0  0
  -37.1607  145.0427   -0.8453 H   0  0  0  0  0  0  0  0  0  0  0  0
  -38.3883  147.1285   -1.9355 H   0  0  0  0  0  0  0  0  0  0  0  0
  -37.7924  147.1223   -0.1823 H   0  0  0  0  0  0  0  0  0  0  0  0
  -36.8042  148.3954    0.6462 H   0  0  0  0  0  0  0  0  0  0  0  0
  -35.2706  148.9414   -0.1131 H   0  0  0  0  0  0  0  0  0  0  0  0
  -36.7067  150.0204   -0.1131 H   0  0  0  0  0  0  0  0  0  0  0  0
  -36.0235  147.8976   -3.3373 H   0  0  0  0  0  0  0  0  0  0  0  0
  -35.0571  149.1028   -2.3351 H   0  0  0  0  0  0  0  0  0  0  0  0
  -34.1884  146.6207   -2.7742 H   0  0  0  0  0  0  0  0  0  0  0  0
  -33.9441  147.5229   -1.1986 H   0  0  0  0  0  0  0  0  0  0  0  0
  -33.9274  147.3582    1.4785 H   0  0  0  0  0  0  0  0  0  0  0  0
  -35.0913  148.6146    3.2635 H   0  0  0  0  0  0  0  0  0  0  0  0
  -39.3383  149.2608    6.4805 H   0  0  0  0  0  0  0  0  0  0  0  0
  -41.4898  149.8077    5.3448 H   0  0  0  0  0  0  0  0  0  0  0  0
  -41.5449  150.1564    2.8756 H   0  0  0  0  0  0  0  0  0  0  0  0
  -39.4509  149.9421    1.5365 H   0  0  0  0  0  0  0  0  0  0  0  0
  -37.2964  149.3951    2.6644 H   0  0  0  0  0  0  0  0  0  0  0  0
  1  2  1  0
  2  3  1  0
  3  4  2  0
  3  5  1  0
  5  6  1  0
  6  7  2  0
  7  8  1  0
  8  9  2  0
  9 10  1  0
  9 11  1  0
 11 12  1  0
 12 13  2  0
 12 14  1  0
 14 15  2  0
 15 16  1  0
 16 17  1  0
 17 18  1  0
 18 19  2  0
 19 20  1  0
 20 21  1  0
 21 22  1  0
 21 23  1  0
 23 24  2  0
 23 25  1  0
 25 26  1  0
 26 27  1  0
 27 28  1  0
 28 29  1  0
 29 30  1  0
 29 31  1  0
 31 32  1  0
 20 33  2  0
 33 34  1  0
 15 35  1  0
 35 36  2  0
 36 37  1  0
 37 38  2  0
 38 39  1  0
 39 40  2  0
 10  5  2  0
 34 17  2  0
 40 35  1  0
 14  8  1  0
 32 26  1  0
  1 41  1  0
  1 42  1  0
  1 43  1  0
  6 44  1  0
  7 45  1  0
 10 46  1  0
 11 47  1  0
 16 48  1  0
 18 49  1  0
 19 50  1  0
 22 51  1  0
 22 52  1  0
 22 53  1  0
 25 54  1  0
 25 55  1  0
 27 56  1  0
 27 57  1  0
 28 58  1  0
 28 59  1  0
 30 60  1  0
 30 61  1  0
 30 62  1  0
 31 63  1  0
 31 64  1  0
 32 65  1  0
 32 66  1  0
 33 67  1  0
 34 68  1  0
 36 69  1  0
 37 70  1  0
 38 71  1  0
 39 72  1  0
 40 73  1  0
M  END
>  <meeko>  (2) 
{"is_sidechain": false}

>  <vina_affinity_kcal_mol>  (2) 
-8.345

>  <pose_rank>  (2) 
2

$$$$

     RDKit          3D

 73 77  0  0  0  0  0  0  0  0999 V2000
  -33.8640  144.3650    0.8990 C   0  0  0  0  0  0  0  0  0  0  0  0
  -35.1140  144.6300    1.5380 O   0  0  0  0  0  0  0  0  0  0  0  0
  -35.0670  144.5590    2.8910 C   0  0  0  0  0  0  0  0  0  0  0  0
  -34.7010  143.5960    3.5460 O   0  0  0  0  0  0  0  0  0  0  0  0
  -35.5270  145.8350    3.5040 C   0  0  0  0  0  0  0  0  0  0  0  0
  -36.8600  146.2850    3.3990 C   0  0  0  0  0  0  0  0  0  0  0  0
  -37.2680  147.4930    3.9870 C   0  0  0  0  0  0  0  0  0  0  0  0
  -36.3340  148.2520    4.6710 C   0  0  0  0  0  0  0  0  0  0  0  0
  -35.0190  147.7790    4.7800 C   0  0  0  0  0  0  0  0  0  0  0  0
  -34.5880  146.5950    4.2130 C   0  0  0  0  0  0  0  0  0  0  0  0
  -34.2430  148.6450    5.5420 N   0  0  0  0  0  0  0  0  0  0  0  0
  -34.9840  149.7210    5.9880 C   0  0  0  0  0  0  0  0  0  0  0  0
  -34.5980  150.6300    6.7020 O   0  0  0  0  0  0  0  0  0  0  0  0
  -36.3710  149.5300    5.4120 C   0  0  0  0  0  0  0  0  0  0  0  0
  -37.3350  150.4590    5.6270 C   0  0  0  0  0  0  0  0  0  0  0  0
  -37.1400  151.5720    6.4430 N   0  0  0  0  0  0  0  0  0  0  0  0
  -37.1390  152.9620    6.2480 C   0  0  0  0  0  0  0  0  0  0  0  0
  -37.9830  153.8710    6.8750 C   0  0  0  0  0  0  0  0  0  0  0  0
  -37.8730  155.2560    6.6510 C   0  0  0  0  0  0  0  0  0  0  0  0
  -36.8950  155.7980    5.8040 C   0  0  0  0  0  0  0  0  0  0  0  0
  -36.8080  157.2230    5.5630 N   0  0  0  0  0  0  0  0  0  0  0  0
  -36.4180  158.0720    6.6900 C   0  0  0  0  0  0  0  0  0  0  0  0
  -36.9880  157.7760    4.2750 C   0  0  0  0  0  0  0  0  0  0  0  0
  -36.1960  158.5660    3.7570 O   0  0  0  0  0  0  0  0  0  0  0  0
  -38.2710  157.3320    3.5310 C   0  0  0  0  0  0  0  0  0  0  0  0
  -38.7740  158.2690    2.5090 N   0  0  0  0  0  0  0  0  0  0  0  0
  -40.2350  158.3950    2.4750 C   0  0  0  0  0  0  0  0  0  0  0  0
  -40.7080  159.5400    1.5370 C   0  0  0  0  0  0  0  0  0  0  0  0
  -39.8790  159.7990    0.3370 N   0  0  0  0  0  0  0  0  0  0  0  0
  -39.0030  160.9520    0.5470 C   0  0  0  0  0  0  0  0  0  0  0  0
  -39.0930  158.5940    0.0100 C   0  0  0  0  0  0  0  0  0  0  0  0
  -38.2170  158.0380    1.1650 C   0  0  0  0  0  0  0  0  0  0  0  0
  -36.0550  154.8800    5.1650 C   0  0  0  0  0  0  0  0  0  0  0  0
  -36.1690  153.4990    5.3900 C   0  0  0  0  0  0  0  0  0  0  0  0
  -38.6690  150.2360    5.0350 C   0  0  0  0  0  0  0  0  0  0  0  0
  -38.9820  150.7520    3.7670 C   0  0  0  0  0  0  0  0  0  0  0  0
  -40.2410  150.5280    3.2070 C   0  0  0  0  0  0  0  0  0  0  0  0
  -41.1940  149.7890    3.9070 C   0  0  0  0  0  0  0  0  0  0  0  0
  -40.8940  149.2760    5.1690 C   0  0  0  0  0  0  0  0  0  0  0  0
  -39.6360  149.4970    5.7320 C   0  0  0  0  0  0  0  0  0  0  0  0
  -33.0894  144.2008    1.6626 H   0  0  0  0  0  0  0  0  0  0  0  0
  -33.9563  143.4665    0.2712 H   0  0  0  0  0  0  0  0  0  0  0  0
  -33.5838  145.2237    0.2712 H   0  0  0  0  0  0  0  0  0  0  0  0
  -37.5929  145.6786    2.8466 H   0  0  0  0  0  0  0  0  0  0  0  0
  -38.3118  147.8304    3.9055 H   0  0  0  0  0  0  0  0  0  0  0  0
  -33.5448  146.2612    4.3147 H   0  0  0  0  0  0  0  0  0  0  0  0
  -33.2730  148.5130    5.7830 H   0  0  0  0  0  0  0  0  0  0  0  0
  -36.9100  151.3170    7.4110 H   0  0  0  0  0  0  0  0  0  0  0  0
  -38.7560  153.4987    7.5633 H   0  0  0  0  0  0  0  0  0  0  0  0
  -38.5760  155.9348    7.1560 H   0  0  0  0  0  0  0  0  0  0  0  0
  -36.6536  157.5591    7.6342 H   0  0  0  0  0  0  0  0  0  0  0  0
  -35.3375  158.2725    6.6413 H   0  0  0  0  0  0  0  0  0  0  0  0
  -36.9698  159.0223    6.6413 H   0  0  0  0  0  0  0  0  0  0  0  0
  -38.0597  156.3729    3.0355 H   0  0  0  0  0  0  0  0  0  0  0  0
  -39.0575  157.2739    4.2978 H   0  0  0  0  0  0  0  0  0  0  0  0
  -40.6634  157.4465    2.1188 H   0  0  0  0  0  0  0  0  0  0  0  0
  -40.5754  158.6330    3.4936 H   0  0  0  0  0  0  0  0  0  0  0  0
  -41.7235  159.2926    1.1941 H   0  0  0  0  0  0  0  0  0  0  0  0
  -40.6391  160.4569    2.1408 H   0  0  0  0  0  0  0  0  0  0  0  0
  -38.8735  161.1224    1.6260 H   0  0  0  0  0  0  0  0  0  0  0  0
  -38.0233  160.7569    0.0864 H   0  0  0  0  0  0  0  0  0  0  0  0
  -39.4536  161.8435    0.0864 H   0  0  0  0  0  0  0  0  0  0  0  0
  -39.7944  157.8035   -0.2950 H   0  0  0  0  0  0  0  0  0  0  0  0
  -38.3935  158.8941   -0.7842 H   0  0  0  0  0  0  0  0  0  0  0  0
  -38.1029  156.9535    1.0204 H   0  0  0  0  0  0  0  0  0  0  0  0
  -37.2586  158.5762    1.1227 H   0  0  0  0  0  0  0  0  0  0  0  0
  -35.2867  155.2490    4.4696 H   0  0  0  0  0  0  0  0  0  0  0  0
  -35.4753  152.8167    4.8769 H   0  0  0  0  0  0  0  0  0  0  0  0
  -38.2319  151.3352    3.2127 H   0  0  0  0  0  0  0  0  0  0  0  0
  -40.4813  150.9345    2.2135 H   0  0  0  0  0  0  0  0  0  0  0  0
  -42.1844  149.6102    3.4631 H   0  0  0  0  0  0  0  0  0  0  0  0
  -41.6492  148.6970    5.7208 H   0  0  0  0  0  0  0  0  0  0  0  0
  -39.4020  149.0898    6.7267 H   0  0  0  0  0  0  0  0  0  0  0  0
  1  2  1  0
  2  3  1  0
  3  4  2  0
  3  5  1  0
  5  6  1  0
  6  7  2  0
  7  8  1  0
  8  9  2  0
  9 10  1  0
  9 11  1  0
 11 12  1  0
 12 13  2  0
 12 14  1  0
 14 15  2  0
 15 16  1  0
 16 17  1  0
 17 18  1  0
 18 19  2  0
 19 20  1  0
 20 21  1  0
 21 22  1  0
 21 23  1  0
 23 24  2  0
 23 25  1  0
 25 26  1  0
 26 27  1  0
 27 28  1  0
 28 29  1  0
 29 30  1  0
 29 31  1  0
 31 32  1  0
 20 33  2  0
 33 34  1  0
 15 35  1  0
 35 36  2  0
 36 37  1  0
 37 38  2  0
 38 39  1  0
 39 40  2  0
 10  5  2  0
 34 17  2  0
 40 35  1  0
 14  8  1  0
 32 26  1  0
  1 41  1  0
  1 42  1  0
  1 43  1  0
  6 44  1  0
  7 45  1  0
 10 46  1  0
 11 47  1  0
 16 48  1  0
 18 49  1  0
 19 50  1  0
 22 51  1  0
 22 52  1  0
 22 53  1  0
 25 54  1  0
 25 55  1  0
 27 56  1  0
 27 57  1  0
 28 58  1  0
 28 59  1  0
 30 60  1  0
 30 61  1  0
 30 62  1  0
 31 63  1  0
 31 64  1  0
 32 65  1  0
 32 66  1  0
 33 67  1  0
 34 68  1  0
 36 69  1  0
 37 70  1  0
 38 71  1  0
 39 72  1  0
 40 73  1  0
M  END
>  <meeko>  (3) 
{"is_sidechain": false}

>  <vina_affinity_kcal_mol>  (3) 
-8.341

>  <pose_rank>  (3) 
3

$$$$

     RDKit          3D

 73 77  0  0  0  0  0  0  0  0999 V2000
  -35.9680  157.8060    6.8360 C   0  0  0  0  0  0  0  0  0  0  0  0
  -36.3610  156.5380    7.3630 O   0  0  0  0  0  0  0  0  0  0  0  0
  -35.3940  155.5890    7.2930 C   0  0  0  0  0  0  0  0  0  0  0  0
  -34.2290  155.7270    7.6290 O   0  0  0  0  0  0  0  0  0  0  0  0
  -35.9390  154.3190    6.7410 C   0  0  0  0  0  0  0  0  0  0  0  0
  -35.6140  153.0580    7.2860 C   0  0  0  0  0  0  0  0  0  0  0  0
  -36.1440  151.8760    6.7460 C   0  0  0  0  0  0  0  0  0  0  0  0
  -36.9910  151.9600    5.6530 C   0  0  0  0  0  0  0  0  0  0  0  0
  -37.3160  153.2220    5.1390 C   0  0  0  0  0  0  0  0  0  0  0  0
  -36.8120  154.4030    5.6490 C   0  0  0  0  0  0  0  0  0  0  0  0
  -38.2140  153.1100    4.0840 N   0  0  0  0  0  0  0  0  0  0  0  0
  -38.5440  151.7910    3.8450 C   0  0  0  0  0  0  0  0  0  0  0  0
  -39.3280  151.3730    3.0110 O   0  0  0  0  0  0  0  0  0  0  0  0
  -37.7350  150.9810    4.8350 C   0  0  0  0  0  0  0  0  0  0  0  0
  -37.7970  149.6260    4.8220 C   0  0  0  0  0  0  0  0  0  0  0  0
  -38.6530  148.9190    3.9800 N   0  0  0  0  0  0  0  0  0  0  0  0
  -38.6030  148.4860    2.6450 C   0  0  0  0  0  0  0  0  0  0  0  0
  -39.6830  148.0290    1.9000 C   0  0  0  0  0  0  0  0  0  0  0  0
  -39.5440  147.6620    0.5470 C   0  0  0  0  0  0  0  0  0  0  0  0
  -38.3170  147.7560   -0.1270 C   0  0  0  0  0  0  0  0  0  0  0  0
  -38.1820  147.3520   -1.5110 N   0  0  0  0  0  0  0  0  0  0  0  0
  -39.3560  146.7620   -2.1550 C   0  0  0  0  0  0  0  0  0  0  0  0
  -37.0060  147.6070   -2.2520 C   0  0  0  0  0  0  0  0  0  0  0  0
  -36.7530  148.6940   -2.7750 O   0  0  0  0  0  0  0  0  0  0  0  0
  -36.0280  146.4130   -2.3840 C   0  0  0  0  0  0  0  0  0  0  0  0
  -34.9920  146.3160   -1.3390 N   0  0  0  0  0  0  0  0  0  0  0  0
  -33.6180  146.3810   -1.8470 C   0  0  0  0  0  0  0  0  0  0  0  0
  -32.5690  146.4880   -0.7050 C   0  0  0  0  0  0  0  0  0  0  0  0
  -32.8970  145.7940    0.5620 N   0  0  0  0  0  0  0  0  0  0  0  0
  -33.4030  146.7380    1.5590 C   0  0  0  0  0  0  0  0  0  0  0  0
  -33.8810  144.7270    0.3010 C   0  0  0  0  0  0  0  0  0  0  0  0
  -35.1790  145.1810   -0.4200 C   0  0  0  0  0  0  0  0  0  0  0  0
  -37.2300  148.2050    0.6300 C   0  0  0  0  0  0  0  0  0  0  0  0
  -37.3730  148.5690    1.9790 C   0  0  0  0  0  0  0  0  0  0  0  0
  -36.9810  148.8770    5.7990 C   0  0  0  0  0  0  0  0  0  0  0  0
  -37.5040  148.5420    7.0580 C   0  0  0  0  0  0  0  0  0  0  0  0
  -36.7320  147.8240    7.9730 C   0  0  0  0  0  0  0  0  0  0  0  0
  -35.4350  147.4360    7.6380 C   0  0  0  0  0  0  0  0  0  0  0  0
  -34.9060  147.7670    6.3900 C   0  0  0  0  0  0  0  0  0  0  0  0
  -35.6750  148.4850    5.4730 C   0  0  0  0  0  0  0  0  0  0  0  0
  -35.7538  158.4970    7.6646 H   0  0  0  0  0  0  0  0  0  0  0  0
  -35.0659  157.6829    6.2188 H   0  0  0  0  0  0  0  0  0  0  0  0
  -36.7816  158.2147    6.2188 H   0  0  0  0  0  0  0  0  0  0  0  0
  -34.9338  153.0009    8.1486 H   0  0  0  0  0  0  0  0  0  0  0  0
  -35.8910  150.8989    7.1834 H   0  0  0  0  0  0  0  0  0  0  0  0
  -37.0866  155.3748    5.2129 H   0  0  0  0  0  0  0  0  0  0  0  0
  -38.6160  153.8760    3.5650 H   0  0  0  0  0  0  0  0  0  0  0  0
  -39.5460  148.6860    4.4290 H   0  0  0  0  0  0  0  0  0  0  0  0
  -40.6706  147.9519    2.3782 H   0  0  0  0  0  0  0  0  0  0  0  0
  -40.4244  147.2904    0.0023 H   0  0  0  0  0  0  0  0  0  0  0  0
  -40.0580  146.4092   -1.3851 H   0  0  0  0  0  0  0  0  0  0  0  0
  -39.8496  147.5191   -2.7820 H   0  0  0  0  0  0  0  0  0  0  0  0
  -39.0430  145.9141   -2.7820 H   0  0  0  0  0  0  0  0  0  0  0  0
  -36.6205  145.4866   -2.3594 H   0  0  0  0  0  0  0  0  0  0  0  0
  -35.4870  146.5718   -3.3285 H   0  0  0  0  0  0  0  0  0  0  0  0
  -33.4136  145.4712   -2.4305 H   0  0  0  0  0  0  0  0  0  0  0  0
  -33.5320  147.2852   -2.4675 H   0  0  0  0  0  0  0  0  0  0  0  0
  -31.6232  146.0697   -1.0799 H   0  0  0  0  0  0  0  0  0  0  0  0
  -32.5265  147.5568   -0.4485 H   0  0  0  0  0  0  0  0  0  0  0  0
  -33.1960  146.3518    2.5679 H   0  0  0  0  0  0  0  0  0  0  0  0
  -32.9051  147.7103    1.4293 H   0  0  0  0  0  0  0  0  0  0  0  0
  -34.4883  146.8616    1.4293 H   0  0  0  0  0  0  0  0  0  0  0  0
  -33.3954  143.9626   -0.3234 H   0  0  0  0  0  0  0  0  0  0  0  0
  -34.1957  144.3565    1.2878 H   0  0  0  0  0  0  0  0  0  0  0  0
  -35.5689  144.3298   -0.9975 H   0  0  0  0  0  0  0  0  0  0  0  0
  -35.8745  145.5185    0.3626 H   0  0  0  0  0  0  0  0  0  0  0  0
  -36.2391  148.2747    0.1574 H   0  0  0  0  0  0  0  0  0  0  0  0
  -36.4921  148.9304    2.5297 H   0  0  0  0  0  0  0  0  0  0  0  0
  -38.5268  148.8467    7.3247 H   0  0  0  0  0  0  0  0  0  0  0  0
  -37.1467  147.5643    8.9582 H   0  0  0  0  0  0  0  0  0  0  0  0
  -34.8282  146.8682    8.3587 H   0  0  0  0  0  0  0  0  0  0  0  0
  -33.8820  147.4618    6.1287 H   0  0  0  0  0  0  0  0  0  0  0  0
  -35.2546  148.7445    4.4902 H   0  0  0  0  0  0  0  0  0  0  0  0
  1  2  1  0
  2  3  1  0
  3  4  2  0
  3  5  1  0
  5  6  1  0
  6  7  2  0
  7  8  1  0
  8  9  2  0
  9 10  1  0
  9 11  1  0
 11 12  1  0
 12 13  2  0
 12 14  1  0
 14 15  2  0
 15 16  1  0
 16 17  1  0
 17 18  1  0
 18 19  2  0
 19 20  1  0
 20 21  1  0
 21 22  1  0
 21 23  1  0
 23 24  2  0
 23 25  1  0
 25 26  1  0
 26 27  1  0
 27 28  1  0
 28 29  1  0
 29 30  1  0
 29 31  1  0
 31 32  1  0
 20 33  2  0
 33 34  1  0
 15 35  1  0
 35 36  2  0
 36 37  1  0
 37 38  2  0
 38 39  1  0
 39 40  2  0
 10  5  2  0
 34 17  2  0
 40 35  1  0
 14  8  1  0
 32 26  1  0
  1 41  1  0
  1 42  1  0
  1 43  1  0
  6 44  1  0
  7 45  1  0
 10 46  1  0
 11 47  1  0
 16 48  1  0
 18 49  1  0
 19 50  1  0
 22 51  1  0
 22 52  1  0
 22 53  1  0
 25 54  1  0
 25 55  1  0
 27 56  1  0
 27 57  1  0
 28 58  1  0
 28 59  1  0
 30 60  1  0
 30 61  1  0
 30 62  1  0
 31 63  1  0
 31 64  1  0
 32 65  1  0
 32 66  1  0
 33 67  1  0
 34 68  1  0
 36 69  1  0
 37 70  1  0
 38 71  1  0
 39 72  1  0
 40 73  1  0
M  END
>  <meeko>  (4) 
{"is_sidechain": false}

>  <vina_affinity_kcal_mol>  (4) 
-8.155

>  <pose_rank>  (4) 
4

$$$$

     RDKit          3D

 73 77  0  0  0  0  0  0  0  0999 V2000
  -41.5980  145.9890   -7.3400 C   0  0  0  0  0  0  0  0  0  0  0  0
  -42.5610  145.6340   -6.3450 O   0  0  0  0  0  0  0  0  0  0  0  0
  -42.6950  146.5520   -5.3570 C   0  0  0  0  0  0  0  0  0  0  0  0
  -43.5010  147.4680   -5.3350 O   0  0  0  0  0  0  0  0  0  0  0  0
  -41.7130  146.3010   -4.2660 C   0  0  0  0  0  0  0  0  0  0  0  0
  -40.5380  147.0680   -4.1180 C   0  0  0  0  0  0  0  0  0  0  0  0
  -39.6290  146.8110   -3.0800 C   0  0  0  0  0  0  0  0  0  0  0  0
  -39.8960  145.7770   -2.1980 C   0  0  0  0  0  0  0  0  0  0  0  0
  -41.0780  145.0400   -2.3500 C   0  0  0  0  0  0  0  0  0  0  0  0
  -41.9920  145.2700   -3.3610 C   0  0  0  0  0  0  0  0  0  0  0  0
  -41.1990  144.0860   -1.3470 N   0  0  0  0  0  0  0  0  0  0  0  0
  -40.1310  144.1380   -0.4740 C   0  0  0  0  0  0  0  0  0  0  0  0
  -39.9650  143.4550    0.5210 O   0  0  0  0  0  0  0  0  0  0  0  0
  -39.2170  145.2200   -1.0100 C   0  0  0  0  0  0  0  0  0  0  0  0
  -38.0370  145.4850   -0.3960 C   0  0  0  0  0  0  0  0  0  0  0  0
  -37.6440  144.8560    0.7830 N   0  0  0  0  0  0  0  0  0  0  0  0
  -37.1210  145.2840    2.0140 C   0  0  0  0  0  0  0  0  0  0  0  0
  -35.7760  145.5010    2.2930 C   0  0  0  0  0  0  0  0  0  0  0  0
  -35.3510  145.9790    3.5470 C   0  0  0  0  0  0  0  0  0  0  0  0
  -36.2570  146.2840    4.5730 C   0  0  0  0  0  0  0  0  0  0  0  0
  -35.8050  146.7520    5.8670 N   0  0  0  0  0  0  0  0  0  0  0  0
  -35.3810  145.7400    6.8370 C   0  0  0  0  0  0  0  0  0  0  0  0
  -35.6720  148.1280    6.1590 C   0  0  0  0  0  0  0  0  0  0  0  0
  -34.6580  148.7830    5.9060 O   0  0  0  0  0  0  0  0  0  0  0  0
  -36.8960  148.7870    6.8400 C   0  0  0  0  0  0  0  0  0  0  0  0
  -37.9460  149.2810    5.9290 N   0  0  0  0  0  0  0  0  0  0  0  0
  -37.9080  150.7280    5.6940 C   0  0  0  0  0  0  0  0  0  0  0  0
  -38.8890  151.1710    4.5740 C   0  0  0  0  0  0  0  0  0  0  0  0
  -40.1460  150.3990    4.4500 N   0  0  0  0  0  0  0  0  0  0  0  0
  -40.0590  149.4300    3.3570 C   0  0  0  0  0  0  0  0  0  0  0  0
  -40.4390  149.7240    5.7290 C   0  0  0  0  0  0  0  0  0  0  0  0
  -39.3010  148.8240    6.2820 C   0  0  0  0  0  0  0  0  0  0  0  0
  -37.6080  146.0530    4.2930 C   0  0  0  0  0  0  0  0  0  0  0  0
  -38.0280  145.5740    3.0420 C   0  0  0  0  0  0  0  0  0  0  0  0
  -37.1740  146.5400   -0.9620 C   0  0  0  0  0  0  0  0  0  0  0  0
  -36.2360  146.2350   -1.9610 C   0  0  0  0  0  0  0  0  0  0  0  0
  -35.4300  147.2400   -2.5010 C   0  0  0  0  0  0  0  0  0  0  0  0
  -35.5550  148.5520   -2.0480 C   0  0  0  0  0  0  0  0  0  0  0  0
  -36.4820  148.8640   -1.0520 C   0  0  0  0  0  0  0  0  0  0  0  0
  -37.2890  147.8630   -0.5110 C   0  0  0  0  0  0  0  0  0  0  0  0
  -40.6737  146.3297   -6.8506 H   0  0  0  0  0  0  0  0  0  0  0  0
  -41.3790  145.1125   -7.9675 H   0  0  0  0  0  0  0  0  0  0  0  0
  -42.0003  146.7979   -7.9675 H   0  0  0  0  0  0  0  0  0  0  0  0
  -40.3308  147.8817   -4.8286 H   0  0  0  0  0  0  0  0  0  0  0  0
  -38.7200  147.4204   -2.9688 H   0  0  0  0  0  0  0  0  0  0  0  0
  -42.9060  144.6646   -3.4513 H   0  0  0  0  0  0  0  0  0  0  0  0
  -41.9720  143.4490   -1.2260 H   0  0  0  0  0  0  0  0  0  0  0  0
  -37.7240  143.8330    0.7320 H   0  0  0  0  0  0  0  0  0  0  0  0
  -35.0262  145.2942    1.5151 H   0  0  0  0  0  0  0  0  0  0  0  0
  -34.2748  146.1176    3.7277 H   0  0  0  0  0  0  0  0  0  0  0  0
  -35.5403  146.1202    7.8569 H   0  0  0  0  0  0  0  0  0  0  0  0
  -35.9705  144.8228    6.6914 H   0  0  0  0  0  0  0  0  0  0  0  0
  -34.3137  145.5169    6.6914 H   0  0  0  0  0  0  0  0  0  0  0  0
  -37.3520  148.0424    7.5091 H   0  0  0  0  0  0  0  0  0  0  0  0
  -36.5077  149.6753    7.3597 H   0  0  0  0  0  0  0  0  0  0  0  0
  -38.1795  151.2447    6.6264 H   0  0  0  0  0  0  0  0  0  0  0  0
  -36.8895  150.9891    5.3709 H   0  0  0  0  0  0  0  0  0  0  0  0
  -39.1592  152.2204    4.7630 H   0  0  0  0  0  0  0  0  0  0  0  0
  -38.3491  150.9993    3.6311 H   0  0  0  0  0  0  0  0  0  0  0  0
  -39.9679  148.4156    3.7727 H   0  0  0  0  0  0  0  0  0  0  0  0
  -40.9664  149.4926    2.7383 H   0  0  0  0  0  0  0  0  0  0  0  0
  -39.1773  149.6533    2.7383 H   0  0  0  0  0  0  0  0  0  0  0  0
  -40.6548  150.4983    6.4799 H   0  0  0  0  0  0  0  0  0  0  0  0
  -41.2875  149.0527    5.5305 H   0  0  0  0  0  0  0  0  0  0  0  0
  -39.3823  148.7995    7.3787 H   0  0  0  0  0  0  0  0  0  0  0  0
  -39.4303  147.8325    5.8235 H   0  0  0  0  0  0  0  0  0  0  0  0
  -38.3592  146.2514    5.0717 H   0  0  0  0  0  0  0  0  0  0  0  0
  -39.1026  145.4216    2.8632 H   0  0  0  0  0  0  0  0  0  0  0  0
  -36.1353  145.2001   -2.3201 H   0  0  0  0  0  0  0  0  0  0  0  0
  -34.6967  146.9959   -3.2837 H   0  0  0  0  0  0  0  0  0  0  0  0
  -34.9220  149.3432   -2.4761 H   0  0  0  0  0  0  0  0  0  0  0  0
  -36.5761  149.8997   -0.6936 H   0  0  0  0  0  0  0  0  0  0  0  0
  -38.0190  148.1125    0.2731 H   0  0  0  0  0  0  0  0  0  0  0  0
  1  2  1  0
  2  3  1  0
  3  4  2  0
  3  5  1  0
  5  6  1  0
  6  7  2  0
  7  8  1  0
  8  9  2  0
  9 10  1  0
  9 11  1  0
 11 12  1  0
 12 13  2  0
 12 14  1  0
 14 15  2  0
 15 16  1  0
 16 17  1  0
 17 18  1  0
 18 19  2  0
 19 20  1  0
 20 21  1  0
 21 22  1  0
 21 23  1  0
 23 24  2  0
 23 25  1  0
 25 26  1  0
 26 27  1  0
 27 28  1  0
 28 29  1  0
 29 30  1  0
 29 31  1  0
 31 32  1  0
 20 33  2  0
 33 34  1  0
 15 35  1  0
 35 36  2  0
 36 37  1  0
 37 38  2  0
 38 39  1  0
 39 40  2  0
 10  5  2  0
 34 17  2  0
 40 35  1  0
 14  8  1  0
 32 26  1  0
  1 41  1  0
  1 42  1  0
  1 43  1  0
  6 44  1  0
  7 45  1  0
 10 46  1  0
 11 47  1  0
 16 48  1  0
 18 49  1  0
 19 50  1  0
 22 51  1  0
 22 52  1  0
 22 53  1  0
 25 54  1  0
 25 55  1  0
 27 56  1  0
 27 57  1  0
 28 58  1  0
 28 59  1  0
 30 60  1  0
 30 61  1  0
 30 62  1  0
 31 63  1  0
 31 64  1  0
 32 65  1  0
 32 66  1  0
 33 67  1  0
 34 68  1  0
 36 69  1  0
 37 70  1  0
 38 71  1  0
 39 72  1  0
 40 73  1  0
M  END
>  <meeko>  (5) 
{"is_sidechain": false}

>  <vina_affinity_kcal_mol>  (5) 
-7.918

>  <pose_rank>  (5) 
5

$$$$

     RDKit          3D

 73 77  0  0  0  0  0  0  0  0999 V2000
  -34.2450  156.9770    6.8450 C   0  0  0  0  0  0  0  0  0  0  0  0
  -34.5020  155.6030    7.1400 O   0  0  0  0  0  0  0  0  0  0  0  0
  -35.8200  155.2920    7.2050 C   0  0  0  0  0  0  0  0  0  0  0  0
  -36.7090  156.0200    7.6150 O   0  0  0  0  0  0  0  0  0  0  0  0
  -36.0620  153.9120    6.7010 C   0  0  0  0  0  0  0  0  0  0  0  0
  -37.2790  153.5330    6.0950 C   0  0  0  0  0  0  0  0  0  0  0  0
  -37.4800  152.2240    5.6280 C   0  0  0  0  0  0  0  0  0  0  0  0
  -36.4630  151.2970    5.7780 C   0  0  0  0  0  0  0  0  0  0  0  0
  -35.2550  151.6980    6.3650 C   0  0  0  0  0  0  0  0  0  0  0  0
  -35.0280  152.9780    6.8340 C   0  0  0  0  0  0  0  0  0  0  0  0
  -34.3420  150.6510    6.3820 N   0  0  0  0  0  0  0  0  0  0  0  0
  -34.8720  149.5130    5.8070 C   0  0  0  0  0  0  0  0  0  0  0  0
  -34.3090  148.4450    5.6440 O   0  0  0  0  0  0  0  0  0  0  0  0
  -36.2900  149.8740    5.4190 C   0  0  0  0  0  0  0  0  0  0  0  0
  -37.1060  148.9410    4.8670 C   0  0  0  0  0  0  0  0  0  0  0  0
  -36.6750  147.6550    4.5520 N   0  0  0  0  0  0  0  0  0  0  0  0
  -36.9700  146.7250    3.5420 C   0  0  0  0  0  0  0  0  0  0  0  0
  -37.0780  147.0070    2.1850 C   0  0  0  0  0  0  0  0  0  0  0  0
  -37.3280  145.9960    1.2390 C   0  0  0  0  0  0  0  0  0  0  0  0
  -37.4610  144.6480    1.6080 C   0  0  0  0  0  0  0  0  0  0  0  0
  -37.7440  143.6210    0.6270 N   0  0  0  0  0  0  0  0  0  0  0  0
  -38.9890  142.8680    0.7830 C   0  0  0  0  0  0  0  0  0  0  0  0
  -36.9130  143.4130   -0.4980 C   0  0  0  0  0  0  0  0  0  0  0  0
  -37.3300  143.3980   -1.6580 O   0  0  0  0  0  0  0  0  0  0  0  0
  -35.4130  143.1890   -0.1880 C   0  0  0  0  0  0  0  0  0  0  0  0
  -34.5850  144.4070   -0.1180 N   0  0  0  0  0  0  0  0  0  0  0  0
  -34.2180  144.9620   -1.4240 C   0  0  0  0  0  0  0  0  0  0  0  0
  -33.5320  146.3510   -1.3050 C   0  0  0  0  0  0  0  0  0  0  0  0
  -32.6940  146.5760   -0.1050 N   0  0  0  0  0  0  0  0  0  0  0  0
  -33.4180  147.3580    0.8980 C   0  0  0  0  0  0  0  0  0  0  0  0
  -32.2670  145.2770    0.4500 C   0  0  0  0  0  0  0  0  0  0  0  0
  -33.4140  144.2800    0.7670 C   0  0  0  0  0  0  0  0  0  0  0  0
  -37.3640  144.3700    2.9740 C   0  0  0  0  0  0  0  0  0  0  0  0
  -37.1150  145.3820    3.9150 C   0  0  0  0  0  0  0  0  0  0  0  0
  -38.4850  149.3360    4.5160 C   0  0  0  0  0  0  0  0  0  0  0  0
  -39.5430  149.1030    5.4100 C   0  0  0  0  0  0  0  0  0  0  0  0
  -40.8430  149.4890    5.0780 C   0  0  0  0  0  0  0  0  0  0  0  0
  -41.0950  150.1080    3.8540 C   0  0  0  0  0  0  0  0  0  0  0  0
  -40.0510  150.3410    2.9580 C   0  0  0  0  0  0  0  0  0  0  0  0
  -38.7500  149.9570    3.2880 C   0  0  0  0  0  0  0  0  0  0  0  0
  -34.1397  157.5402    7.7840 H   0  0  0  0  0  0  0  0  0  0  0  0
  -33.3159  157.0593    6.2619 H   0  0  0  0  0  0  0  0  0  0  0  0
  -35.0816  157.3895    6.2619 H   0  0  0  0  0  0  0  0  0  0  0  0
  -38.0835  154.2754    5.9867 H   0  0  0  0  0  0  0  0  0  0  0  0
  -38.4297  151.9400    5.1510 H   0  0  0  0  0  0  0  0  0  0  0  0
  -34.0683  153.2532    7.2957 H   0  0  0  0  0  0  0  0  0  0  0  0
  -33.3960  150.6970    6.7300 H   0  0  0  0  0  0  0  0  0  0  0  0
  -36.0070  147.2830    5.2380 H   0  0  0  0  0  0  0  0  0  0  0  0
  -36.9652  148.0462    1.8424 H   0  0  0  0  0  0  0  0  0  0  0  0
  -37.4221  146.2701    0.1779 H   0  0  0  0  0  0  0  0  0  0  0  0
  -39.2063  142.7365    1.8533 H   0  0  0  0  0  0  0  0  0  0  0  0
  -39.8131  143.4192    0.3065 H   0  0  0  0  0  0  0  0  0  0  0  0
  -38.8834  141.8822    0.3065 H   0  0  0  0  0  0  0  0  0  0  0  0
  -35.3415  142.6757    0.7823 H   0  0  0  0  0  0  0  0  0  0  0  0
  -35.0166  142.6055   -1.0321 H   0  0  0  0  0  0  0  0  0  0  0  0
  -33.5252  144.2672   -1.9212 H   0  0  0  0  0  0  0  0  0  0  0  0
  -35.1429  145.0931   -2.0049 H   0  0  0  0  0  0  0  0  0  0  0  0
  -32.8912  146.4836   -2.1892 H   0  0  0  0  0  0  0  0  0  0  0  0
  -34.3558  147.0753   -1.2234 H   0  0  0  0  0  0  0  0  0  0  0  0
  -33.1165  147.0324    1.9045 H   0  0  0  0  0  0  0  0  0  0  0  0
  -33.1818  148.4249    0.7717 H   0  0  0  0  0  0  0  0  0  0  0  0
  -34.4999  147.2045    0.7717 H   0  0  0  0  0  0  0  0  0  0  0  0
  -31.5949  144.8007   -0.2790 H   0  0  0  0  0  0  0  0  0  0  0  0
  -31.7856  145.5019    1.4131 H   0  0  0  0  0  0  0  0  0  0  0  0
  -33.0189  143.2578    0.6721 H   0  0  0  0  0  0  0  0  0  0  0  0
  -33.7605  144.5096    1.7854 H   0  0  0  0  0  0  0  0  0  0  0  0
  -37.4857  143.3331    3.3206 H   0  0  0  0  0  0  0  0  0  0  0  0
  -37.0311  145.1122    4.9781 H   0  0  0  0  0  0  0  0  0  0  0  0
  -39.3465  148.6144    6.3757 H   0  0  0  0  0  0  0  0  0  0  0  0
  -41.6682  149.3049    5.7817 H   0  0  0  0  0  0  0  0  0  0  0  0
  -42.1194  150.4133    3.5942 H   0  0  0  0  0  0  0  0  0  0  0  0
  -40.2530  150.8270    1.9921 H   0  0  0  0  0  0  0  0  0  0  0  0
  -37.9286  150.1429    2.5804 H   0  0  0  0  0  0  0  0  0  0  0  0
  1  2  1  0
  2  3  1  0
  3  4  2  0
  3  5  1  0
  5  6  1  0
  6  7  2  0
  7  8  1  0
  8  9  2  0
  9 10  1  0
  9 11  1  0
 11 12  1  0
 12 13  2  0
 12 14  1  0
 14 15  2  0
 15 16  1  0
 16 17  1  0
 17 18  1  0
 18 19  2  0
 19 20  1  0
 20 21  1  0
 21 22  1  0
 21 23  1  0
 23 24  2  0
 23 25  1  0
 25 26  1  0
 26 27  1  0
 27 28  1  0
 28 29  1  0
 29 30  1  0
 29 31  1  0
 31 32  1  0
 20 33  2  0
 33 34  1  0
 15 35  1  0
 35 36  2  0
 36 37  1  0
 37 38  2  0
 38 39  1  0
 39 40  2  0
 10  5  2  0
 34 17  2  0
 40 35  1  0
 14  8  1  0
 32 26  1  0
  1 41  1  0
  1 42  1  0
  1 43  1  0
  6 44  1  0
  7 45  1  0
 10 46  1  0
 11 47  1  0
 16 48  1  0
 18 49  1  0
 19 50  1  0
 22 51  1  0
 22 52  1  0
 22 53  1  0
 25 54  1  0
 25 55  1  0
 27 56  1  0
 27 57  1  0
 28 58  1  0
 28 59  1  0
 30 60  1  0
 30 61  1  0
 30 62  1  0
 31 63  1  0
 31 64  1  0
 32 65  1  0
 32 66  1  0
 33 67  1  0
 34 68  1  0
 36 69  1  0
 37 70  1  0
 38 71  1  0
 39 72  1  0
 40 73  1  0
M  END
>  <meeko>  (6) 
{"is_sidechain": false}

>  <vina_affinity_kcal_mol>  (6) 
-7.817

>  <pose_rank>  (6) 
6

$$$$

     RDKit          3D

 73 77  0  0  0  0  0  0  0  0999 V2000
  -41.5390  146.1520   -7.9340 C   0  0  0  0  0  0  0  0  0  0  0  0
  -42.0870  146.5780   -6.6860 O   0  0  0  0  0  0  0  0  0  0  0  0
  -42.3720  145.5630   -5.8330 C   0  0  0  0  0  0  0  0  0  0  0  0
  -43.1050  144.6150   -6.0680 O   0  0  0  0  0  0  0  0  0  0  0  0
  -41.6630  145.7460   -4.5380 C   0  0  0  0  0  0  0  0  0  0  0  0
  -42.0600  145.0790   -3.3590 C   0  0  0  0  0  0  0  0  0  0  0  0
  -41.3710  145.2690   -2.1510 C   0  0  0  0  0  0  0  0  0  0  0  0
  -40.2930  146.1370   -2.1240 C   0  0  0  0  0  0  0  0  0  0  0  0
  -39.9020  146.7750   -3.3100 C   0  0  0  0  0  0  0  0  0  0  0  0
  -40.5590  146.6070   -4.5140 C   0  0  0  0  0  0  0  0  0  0  0  0
  -38.7750  147.5600   -3.1010 N   0  0  0  0  0  0  0  0  0  0  0  0
  -38.3470  147.4850   -1.7900 C   0  0  0  0  0  0  0  0  0  0  0  0
  -37.3720  148.0310   -1.3060 O   0  0  0  0  0  0  0  0  0  0  0  0
  -39.3380  146.5810   -1.0880 C   0  0  0  0  0  0  0  0  0  0  0  0
  -39.2220  146.3420    0.2420 C   0  0  0  0  0  0  0  0  0  0  0  0
  -38.1650  146.8300    1.0060 N   0  0  0  0  0  0  0  0  0  0  0  0
  -38.0350  147.7620    2.0480 C   0  0  0  0  0  0  0  0  0  0  0  0
  -38.9270  148.7900    2.3330 C   0  0  0  0  0  0  0  0  0  0  0  0
  -38.7380  149.6470    3.4340 C   0  0  0  0  0  0  0  0  0  0  0  0
  -37.6550  149.5000    4.3130 C   0  0  0  0  0  0  0  0  0  0  0  0
  -37.4580  150.4040    5.4280 N   0  0  0  0  0  0  0  0  0  0  0  0
  -38.5260  151.3650    5.7100 C   0  0  0  0  0  0  0  0  0  0  0  0
  -36.3350  150.3060    6.2800 C   0  0  0  0  0  0  0  0  0  0  0  0
  -36.3440  149.6920    7.3490 O   0  0  0  0  0  0  0  0  0  0  0  0
  -35.0610  151.0370    5.7930 C   0  0  0  0  0  0  0  0  0  0  0  0
  -35.1350  152.5100    5.7750 N   0  0  0  0  0  0  0  0  0  0  0  0
  -33.9560  153.1660    5.2010 C   0  0  0  0  0  0  0  0  0  0  0  0
  -34.1640  154.6940    5.0080 C   0  0  0  0  0  0  0  0  0  0  0  0
  -35.0240  155.3760    6.0030 N   0  0  0  0  0  0  0  0  0  0  0  0
  -36.3700  155.5900    5.4710 C   0  0  0  0  0  0  0  0  0  0  0  0
  -35.0690  154.5810    7.2450 C   0  0  0  0  0  0  0  0  0  0  0  0
  -35.5090  153.1020    7.0710 C   0  0  0  0  0  0  0  0  0  0  0  0
  -36.7530  148.4730    4.0170 C   0  0  0  0  0  0  0  0  0  0  0  0
  -36.9450  147.6210    2.9170 C   0  0  0  0  0  0  0  0  0  0  0  0
  -40.2190  145.4630    0.8860 C   0  0  0  0  0  0  0  0  0  0  0  0
  -39.9810  144.0850    1.0080 C   0  0  0  0  0  0  0  0  0  0  0  0
  -40.9220  143.2600    1.6280 C   0  0  0  0  0  0  0  0  0  0  0  0
  -42.1030  143.8050    2.1300 C   0  0  0  0  0  0  0  0  0  0  0  0
  -42.3490  145.1730    2.0110 C   0  0  0  0  0  0  0  0  0  0  0  0
  -41.4110  146.0000    1.3920 C   0  0  0  0  0  0  0  0  0  0  0  0
  -40.6827  145.4863   -7.7503 H   0  0  0  0  0  0  0  0  0  0  0  0
  -42.3073  145.6117   -8.5065 H   0  0  0  0  0  0  0  0  0  0  0  0
  -41.2048  147.0298   -8.5065 H   0  0  0  0  0  0  0  0  0  0  0  0
  -42.9240  144.3988   -3.3874 H   0  0  0  0  0  0  0  0  0  0  0  0
  -41.6827  144.7366   -1.2403 H   0  0  0  0  0  0  0  0  0  0  0  0
  -40.2263  147.1314   -5.4219 H   0  0  0  0  0  0  0  0  0  0  0  0
  -38.2910  148.0990   -3.8030 H   0  0  0  0  0  0  0  0  0  0  0  0
  -37.2580  146.4430    0.7190 H   0  0  0  0  0  0  0  0  0  0  0  0
  -39.8016  148.9372    1.6824 H   0  0  0  0  0  0  0  0  0  0  0  0
  -39.4617  150.4564    3.6101 H   0  0  0  0  0  0  0  0  0  0  0  0
  -38.6450  151.4721    6.7983 H   0  0  0  0  0  0  0  0  0  0  0  0
  -38.2670  152.3401    5.2718 H   0  0  0  0  0  0  0  0  0  0  0  0
  -39.4685  151.0048    5.2718 H   0  0  0  0  0  0  0  0  0  0  0  0
  -34.2319  150.7485    6.4558 H   0  0  0  0  0  0  0  0  0  0  0  0
  -34.9225  150.7314    4.7454 H   0  0  0  0  0  0  0  0  0  0  0  0
  -33.1008  153.0081    5.8746 H   0  0  0  0  0  0  0  0  0  0  0  0
  -33.7752  152.7241    4.2100 H   0  0  0  0  0  0  0  0  0  0  0  0
  -33.1739  155.1723    5.0386 H   0  0  0  0  0  0  0  0  0  0  0  0
  -34.6922  154.7965    4.0486 H   0  0  0  0  0  0  0  0  0  0  0  0
  -37.0798  155.7028    6.3038 H   0  0  0  0  0  0  0  0  0  0  0  0
  -36.3801  156.5010    4.8546 H   0  0  0  0  0  0  0  0  0  0  0  0
  -36.6621  154.7270    4.8546 H   0  0  0  0  0  0  0  0  0  0  0  0
  -34.0623  154.5861    7.6883 H   0  0  0  0  0  0  0  0  0  0  0  0
  -35.8330  155.0527    7.8804 H   0  0  0  0  0  0  0  0  0  0  0  0
  -35.0424  152.5069    7.8698 H   0  0  0  0  0  0  0  0  0  0  0  0
  -36.6079  153.0911    7.1185 H   0  0  0  0  0  0  0  0  0  0  0  0
  -35.8727  148.3292    4.6607 H   0  0  0  0  0  0  0  0  0  0  0  0
  -36.2167  146.8177    2.7319 H   0  0  0  0  0  0  0  0  0  0  0  0
  -39.0494  143.6531    0.6136 H   0  0  0  0  0  0  0  0  0  0  0  0
  -40.7314  142.1806    1.7202 H   0  0  0  0  0  0  0  0  0  0  0  0
  -42.8423  143.1550    2.6209 H   0  0  0  0  0  0  0  0  0  0  0  0
  -43.2829  145.6000    2.4054 H   0  0  0  0  0  0  0  0  0  0  0  0
  -41.6078  147.0784    1.3006 H   0  0  0  0  0  0  0  0  0  0  0  0
  1  2  1  0
  2  3  1  0
  3  4  2  0
  3  5  1  0
  5  6  1  0
  6  7  2  0
  7  8  1  0
  8  9  2  0
  9 10  1  0
  9 11  1  0
 11 12  1  0
 12 13  2  0
 12 14  1  0
 14 15  2  0
 15 16  1  0
 16 17  1  0
 17 18  1  0
 18 19  2  0
 19 20  1  0
 20 21  1  0
 21 22  1  0
 21 23  1  0
 23 24  2  0
 23 25  1  0
 25 26  1  0
 26 27  1  0
 27 28  1  0
 28 29  1  0
 29 30  1  0
 29 31  1  0
 31 32  1  0
 20 33  2  0
 33 34  1  0
 15 35  1  0
 35 36  2  0
 36 37  1  0
 37 38  2  0
 38 39  1  0
 39 40  2  0
 10  5  2  0
 34 17  2  0
 40 35  1  0
 14  8  1  0
 32 26  1  0
  1 41  1  0
  1 42  1  0
  1 43  1  0
  6 44  1  0
  7 45  1  0
 10 46  1  0
 11 47  1  0
 16 48  1  0
 18 49  1  0
 19 50  1  0
 22 51  1  0
 22 52  1  0
 22 53  1  0
 25 54  1  0
 25 55  1  0
 27 56  1  0
 27 57  1  0
 28 58  1  0
 28 59  1  0
 30 60  1  0
 30 61  1  0
 30 62  1  0
 31 63  1  0
 31 64  1  0
 32 65  1  0
 32 66  1  0
 33 67  1  0
 34 68  1  0
 36 69  1  0
 37 70  1  0
 38 71  1  0
 39 72  1  0
 40 73  1  0
M  END
>  <meeko>  (7) 
{"is_sidechain": false}

>  <vina_affinity_kcal_mol>  (7) 
-7.786

>  <pose_rank>  (7) 
7

$$$$

     RDKit          3D

 73 77  0  0  0  0  0  0  0  0999 V2000
  -41.5780  145.9460   -7.4960 C   0  0  0  0  0  0  0  0  0  0  0  0
  -42.1210  145.4030   -6.2920 O   0  0  0  0  0  0  0  0  0  0  0  0
  -42.4960  146.3400   -5.3850 C   0  0  0  0  0  0  0  0  0  0  0  0
  -43.4550  147.0880   -5.4830 O   0  0  0  0  0  0  0  0  0  0  0  0
  -41.5690  146.3470   -4.2210 C   0  0  0  0  0  0  0  0  0  0  0  0
  -40.3240  147.0110   -4.2510 C   0  0  0  0  0  0  0  0  0  0  0  0
  -39.4700  147.0020   -3.1370 C   0  0  0  0  0  0  0  0  0  0  0  0
  -39.8620  146.3190   -1.9980 C   0  0  0  0  0  0  0  0  0  0  0  0
  -41.1110  145.6830   -1.9810 C   0  0  0  0  0  0  0  0  0  0  0  0
  -41.9730  145.6740   -3.0610 C   0  0  0  0  0  0  0  0  0  0  0  0
  -41.3520  145.0990   -0.7430 N   0  0  0  0  0  0  0  0  0  0  0  0
  -40.3030  145.3180    0.1270 C   0  0  0  0  0  0  0  0  0  0  0  0
  -40.2300  144.9620    1.2900 O   0  0  0  0  0  0  0  0  0  0  0  0
  -39.2710  146.0940   -0.6630 C   0  0  0  0  0  0  0  0  0  0  0  0
  -38.0830  146.4250   -0.0970 C   0  0  0  0  0  0  0  0  0  0  0  0
  -37.7830  146.1560    1.2360 N   0  0  0  0  0  0  0  0  0  0  0  0
  -37.5420  146.9340    2.3800 C   0  0  0  0  0  0  0  0  0  0  0  0
  -36.3100  147.1050    3.0000 C   0  0  0  0  0  0  0  0  0  0  0  0
  -36.1570  147.9480    4.1170 C   0  0  0  0  0  0  0  0  0  0  0  0
  -37.2300  148.6760    4.6520 C   0  0  0  0  0  0  0  0  0  0  0  0
  -37.0640  149.5200    5.8180 N   0  0  0  0  0  0  0  0  0  0  0  0
  -36.9440  148.8560    7.1160 C   0  0  0  0  0  0  0  0  0  0  0  0
  -36.9180  150.9210    5.7100 C   0  0  0  0  0  0  0  0  0  0  0  0
  -37.8480  151.6840    5.4400 O   0  0  0  0  0  0  0  0  0  0  0  0
  -35.4870  151.4640    5.9460 C   0  0  0  0  0  0  0  0  0  0  0  0
  -35.3430  152.9310    5.9010 N   0  0  0  0  0  0  0  0  0  0  0  0
  -34.0910  153.3940    5.2940 C   0  0  0  0  0  0  0  0  0  0  0  0
  -34.0740  154.9320    5.0750 C   0  0  0  0  0  0  0  0  0  0  0  0
  -34.8030  155.7510    6.0710 N   0  0  0  0  0  0  0  0  0  0  0  0
  -36.1130  156.1540    5.5580 C   0  0  0  0  0  0  0  0  0  0  0  0
  -34.9420  154.9920    7.3290 C   0  0  0  0  0  0  0  0  0  0  0  0
  -35.5990  153.5930    7.1920 C   0  0  0  0  0  0  0  0  0  0  0  0
  -38.4700  148.4920    4.0340 C   0  0  0  0  0  0  0  0  0  0  0  0
  -38.6190  147.6490    2.9200 C   0  0  0  0  0  0  0  0  0  0  0  0
  -37.1030  147.1710   -0.9100 C   0  0  0  0  0  0  0  0  0  0  0  0
  -37.0110  148.5690   -0.8120 C   0  0  0  0  0  0  0  0  0  0  0  0
  -36.0740  149.2690   -1.5750 C   0  0  0  0  0  0  0  0  0  0  0  0
  -35.2240  148.5790   -2.4390 C   0  0  0  0  0  0  0  0  0  0  0  0
  -35.3100  147.1910   -2.5460 C   0  0  0  0  0  0  0  0  0  0  0  0
  -36.2450  146.4880   -1.7840 C   0  0  0  0  0  0  0  0  0  0  0  0
  -40.8203  146.7037   -7.2475 H   0  0  0  0  0  0  0  0  0  0  0  0
  -41.1126  145.1412   -8.0840 H   0  0  0  0  0  0  0  0  0  0  0  0
  -42.3828  146.4114   -8.0840 H   0  0  0  0  0  0  0  0  0  0  0  0
  -40.0177  147.5446   -5.1628 H   0  0  0  0  0  0  0  0  0  0  0  0
  -38.5050  147.5290   -3.1683 H   0  0  0  0  0  0  0  0  0  0  0  0
  -42.9424  145.1565   -3.0114 H   0  0  0  0  0  0  0  0  0  0  0  0
  -42.1890  144.6040   -0.4760 H   0  0  0  0  0  0  0  0  0  0  0  0
  -37.6810  145.1510    1.4240 H   0  0  0  0  0  0  0  0  0  0  0  0
  -35.4331  146.5686    2.6084 H   0  0  0  0  0  0  0  0  0  0  0  0
  -35.1655  148.0386    4.5846 H   0  0  0  0  0  0  0  0  0  0  0  0
  -37.0776  149.5951    7.9197 H   0  0  0  0  0  0  0  0  0  0  0  0
  -37.7159  148.0771    7.2022 H   0  0  0  0  0  0  0  0  0  0  0  0
  -35.9483  148.3965    7.2022 H   0  0  0  0  0  0  0  0  0  0  0  0
  -35.1554  151.1223    6.9376 H   0  0  0  0  0  0  0  0  0  0  0  0
  -34.8794  151.0779    5.1143 H   0  0  0  0  0  0  0  0  0  0  0  0
  -33.2555  153.1219    5.9557 H   0  0  0  0  0  0  0  0  0  0  0  0
  -33.9972  152.9133    4.3091 H   0  0  0  0  0  0  0  0  0  0  0  0
  -33.0235  155.2583    5.0790 H   0  0  0  0  0  0  0  0  0  0  0  0
  -34.6005  155.0957    4.1231 H   0  0  0  0  0  0  0  0  0  0  0  0
  -36.7887  156.3619    6.4008 H   0  0  0  0  0  0  0  0  0  0  0  0
  -36.0034  157.0600    4.9438 H   0  0  0  0  0  0  0  0  0  0  0  0
  -36.5316  155.3431    4.9438 H   0  0  0  0  0  0  0  0  0  0  0  0
  -33.9374  154.8550    7.7557 H   0  0  0  0  0  0  0  0  0  0  0  0
  -35.6159  155.5826    7.9669 H   0  0  0  0  0  0  0  0  0  0  0  0
  -35.2093  152.9485    7.9937 H   0  0  0  0  0  0  0  0  0  0  0  0
  -36.6863  153.7457    7.2596 H   0  0  0  0  0  0  0  0  0  0  0  0
  -39.3504  149.0199    4.4293 H   0  0  0  0  0  0  0  0  0  0  0  0
  -39.6119  147.5472    2.4575 H   0  0  0  0  0  0  0  0  0  0  0  0
  -37.6802  149.1152   -0.1310 H   0  0  0  0  0  0  0  0  0  0  0  0
  -36.0064  150.3640   -1.4946 H   0  0  0  0  0  0  0  0  0  0  0  0
  -34.4841  149.1307   -3.0374 H   0  0  0  0  0  0  0  0  0  0  0  0
  -34.6408  146.6499   -3.2311 H   0  0  0  0  0  0  0  0  0  0  0  0
  -36.3090  145.3932   -1.8696 H   0  0  0  0  0  0  0  0  0  0  0  0
  1  2  1  0
  2  3  1  0
  3  4  2  0
  3  5  1  0
  5  6  1  0
  6  7  2  0
  7  8  1  0
  8  9  2  0
  9 10  1  0
  9 11  1  0
 11 12  1  0
 12 13  2  0
 12 14  1  0
 14 15  2  0
 15 16  1  0
 16 17  1  0
 17 18  1  0
 18 19  2  0
 19 20  1  0
 20 21  1  0
 21 22  1  0
 21 23  1  0
 23 24  2  0
 23 25  1  0
 25 26  1  0
 26 27  1  0
 27 28  1  0
 28 29  1  0
 29 30  1  0
 29 31  1  0
 31 32  1  0
 20 33  2  0
 33 34  1  0
 15 35  1  0
 35 36  2  0
 36 37  1  0
 37 38  2  0
 38 39  1  0
 39 40  2  0
 10  5  2  0
 34 17  2  0
 40 35  1  0
 14  8  1  0
 32 26  1  0
  1 41  1  0
  1 42  1  0
  1 43  1  0
  6 44  1  0
  7 45  1  0
 10 46  1  0
 11 47  1  0
 16 48  1  0
 18 49  1  0
 19 50  1  0
 22 51  1  0
 22 52  1  0
 22 53  1  0
 25 54  1  0
 25 55  1  0
 27 56  1  0
 27 57  1  0
 28 58  1  0
 28 59  1  0
 30 60  1  0
 30 61  1  0
 30 62  1  0
 31 63  1  0
 31 64  1  0
 32 65  1  0
 32 66  1  0
 33 67  1  0
 34 68  1  0
 36 69  1  0
 37 70  1  0
 38 71  1  0
 39 72  1  0
 40 73  1  0
M  END
>  <meeko>  (8) 
{"is_sidechain": false}

>  <vina_affinity_kcal_mol>  (8) 
-7.722

>  <pose_rank>  (8) 
8

$$$$

     RDKit          3D

 73 77  0  0  0  0  0  0  0  0999 V2000
  -42.3930  145.8510   -5.0360 C   0  0  0  0  0  0  0  0  0  0  0  0
  -41.2520  145.5400   -4.2350 O   0  0  0  0  0  0  0  0  0  0  0  0
  -41.5430  144.8350   -3.1130 C   0  0  0  0  0  0  0  0  0  0  0  0
  -42.2900  143.8730   -3.0450 O   0  0  0  0  0  0  0  0  0  0  0  0
  -40.8190  145.3910   -1.9380 C   0  0  0  0  0  0  0  0  0  0  0  0
  -39.5010  145.8880   -2.0290 C   0  0  0  0  0  0  0  0  0  0  0  0
  -38.8420  146.4070   -0.9030 C   0  0  0  0  0  0  0  0  0  0  0  0
  -39.5020  146.4180    0.3130 C   0  0  0  0  0  0  0  0  0  0  0  0
  -40.8170  145.9380    0.3790 C   0  0  0  0  0  0  0  0  0  0  0  0
  -41.4920  145.4210   -0.7110 C   0  0  0  0  0  0  0  0  0  0  0  0
  -41.3310  146.0770    1.6630 N   0  0  0  0  0  0  0  0  0  0  0  0
  -40.4110  146.6590    2.5110 C   0  0  0  0  0  0  0  0  0  0  0  0
  -40.5730  146.9420    3.6850 O   0  0  0  0  0  0  0  0  0  0  0  0
  -39.1660  146.8760    1.6770 C   0  0  0  0  0  0  0  0  0  0  0  0
  -38.0460  147.3930    2.2410 C   0  0  0  0  0  0  0  0  0  0  0  0
  -38.0000  147.8260    3.5650 N   0  0  0  0  0  0  0  0  0  0  0  0
  -37.2910  148.8140    4.2660 C   0  0  0  0  0  0  0  0  0  0  0  0
  -35.9640  148.7260    4.6720 C   0  0  0  0  0  0  0  0  0  0  0  0
  -35.3210  149.7920    5.3290 C   0  0  0  0  0  0  0  0  0  0  0  0
  -35.9740  151.0070    5.5900 C   0  0  0  0  0  0  0  0  0  0  0  0
  -35.3090  152.0870    6.2890 N   0  0  0  0  0  0  0  0  0  0  0  0
  -35.5890  152.2350    7.7180 C   0  0  0  0  0  0  0  0  0  0  0  0
  -34.3480  152.9070    5.6550 C   0  0  0  0  0  0  0  0  0  0  0  0
  -33.8100  152.6210    4.5840 O   0  0  0  0  0  0  0  0  0  0  0  0
  -33.9890  154.2140    6.4030 C   0  0  0  0  0  0  0  0  0  0  0  0
  -34.7290  155.4170    5.9800 N   0  0  0  0  0  0  0  0  0  0  0  0
  -33.8990  156.4420    5.3400 C   0  0  0  0  0  0  0  0  0  0  0  0
  -34.7460  157.5910    4.7250 C   0  0  0  0  0  0  0  0  0  0  0  0
  -36.0010  157.9380    5.4290 N   0  0  0  0  0  0  0  0  0  0  0  0
  -37.1580  157.3440    4.7580 C   0  0  0  0  0  0  0  0  0  0  0  0
  -35.9210  157.4920    6.8330 C   0  0  0  0  0  0  0  0  0  0  0  0
  -35.5830  155.9900    7.0350 C   0  0  0  0  0  0  0  0  0  0  0  0
  -37.3120  151.0870    5.1910 C   0  0  0  0  0  0  0  0  0  0  0  0
  -37.9490  150.0200    4.5370 C   0  0  0  0  0  0  0  0  0  0  0  0
  -36.8520  147.5750    1.3920 C   0  0  0  0  0  0  0  0  0  0  0  0
  -35.8830  146.5630    1.2970 C   0  0  0  0  0  0  0  0  0  0  0  0
  -34.7620  146.7350    0.4830 C   0  0  0  0  0  0  0  0  0  0  0  0
  -34.6010  147.9170   -0.2410 C   0  0  0  0  0  0  0  0  0  0  0  0
  -35.5570  148.9290   -0.1500 C   0  0  0  0  0  0  0  0  0  0  0  0
  -36.6800  148.7590    0.6620 C   0  0  0  0  0  0  0  0  0  0  0  0
  -43.2470  146.0838   -4.3829 H   0  0  0  0  0  0  0  0  0  0  0  0
  -42.1692  146.7209   -5.6710 H   0  0  0  0  0  0  0  0  0  0  0  0
  -42.6415  144.9878   -5.6710 H   0  0  0  0  0  0  0  0  0  0  0  0
  -38.9814  145.8684   -2.9984 H   0  0  0  0  0  0  0  0  0  0  0  0
  -37.8174  146.7986   -0.9863 H   0  0  0  0  0  0  0  0  0  0  0  0
  -42.5220  145.0463   -0.6174 H   0  0  0  0  0  0  0  0  0  0  0  0
  -42.2630  145.8270    1.9570 H   0  0  0  0  0  0  0  0  0  0  0  0
  -38.6040  147.2710    4.1830 H   0  0  0  0  0  0  0  0  0  0  0  0
  -35.4029  147.8006    4.4749 H   0  0  0  0  0  0  0  0  0  0  0  0
  -34.2753  149.6693    5.6475 H   0  0  0  0  0  0  0  0  0  0  0  0
  -34.7640  151.7989    8.3004 H   0  0  0  0  0  0  0  0  0  0  0  0
  -35.6870  153.3027    7.9638 H   0  0  0  0  0  0  0  0  0  0  0  0
  -36.5264  151.7146    7.9638 H   0  0  0  0  0  0  0  0  0  0  0  0
  -34.1855  154.0555    7.4736 H   0  0  0  0  0  0  0  0  0  0  0  0
  -32.9331  154.4135    6.1678 H   0  0  0  0  0  0  0  0  0  0  0  0
  -33.2200  156.8679    6.0934 H   0  0  0  0  0  0  0  0  0  0  0  0
  -33.3426  155.9607    4.5223 H   0  0  0  0  0  0  0  0  0  0  0  0
  -34.1169  158.4930    4.6998 H   0  0  0  0  0  0  0  0  0  0  0  0
  -35.0594  157.2238    3.7366 H   0  0  0  0  0  0  0  0  0  0  0  0
  -37.8709  156.9780    5.5115 H   0  0  0  0  0  0  0  0  0  0  0  0
  -37.6466  158.1028    4.1291 H   0  0  0  0  0  0  0  0  0  0  0  0
  -36.8262  156.5048    4.1291 H   0  0  0  0  0  0  0  0  0  0  0  0
  -35.1423  158.0857    7.3341 H   0  0  0  0  0  0  0  0  0  0  0  0
  -36.9264  157.6365    7.2553 H   0  0  0  0  0  0  0  0  0  0  0  0
  -35.0629  155.8797    7.9980 H   0  0  0  0  0  0  0  0  0  0  0  0
  -36.5371  155.4436    7.0016 H   0  0  0  0  0  0  0  0  0  0  0  0
  -37.8788  152.0075    5.3943 H   0  0  0  0  0  0  0  0  0  0  0  0
  -38.9983  150.1352    4.2277 H   0  0  0  0  0  0  0  0  0  0  0  0
  -36.0079  145.6303    1.8667 H   0  0  0  0  0  0  0  0  0  0  0  0
  -34.0060  145.9391    0.4123 H   0  0  0  0  0  0  0  0  0  0  0  0
  -33.7190  148.0510   -0.8845 H   0  0  0  0  0  0  0  0  0  0  0  0
  -35.4259  149.8616   -0.7184 H   0  0  0  0  0  0  0  0  0  0  0  0
  -37.4331  149.5579    0.7291 H   0  0  0  0  0  0  0  0  0  0  0  0
  1  2  1  0
  2  3  1  0
  3  4  2  0
  3  5  1  0
  5  6  1  0
  6  7  2  0
  7  8  1  0
  8  9  2  0
  9 10  1  0
  9 11  1  0
 11 12  1  0
 12 13  2  0
 12 14  1  0
 14 15  2  0
 15 16  1  0
 16 17  1  0
 17 18  1  0
 18 19  2  0
 19 20  1  0
 20 21  1  0
 21 22  1  0
 21 23  1  0
 23 24  2  0
 23 25  1  0
 25 26  1  0
 26 27  1  0
 27 28  1  0
 28 29  1  0
 29 30  1  0
 29 31  1  0
 31 32  1  0
 20 33  2  0
 33 34  1  0
 15 35  1  0
 35 36  2  0
 36 37  1  0
 37 38  2  0
 38 39  1  0
 39 40  2  0
 10  5  2  0
 34 17  2  0
 40 35  1  0
 14  8  1  0
 32 26  1  0
  1 41  1  0
  1 42  1  0
  1 43  1  0
  6 44  1  0
  7 45  1  0
 10 46  1  0
 11 47  1  0
 16 48  1  0
 18 49  1  0
 19 50  1  0
 22 51  1  0
 22 52  1  0
 22 53  1  0
 25 54  1  0
 25 55  1  0
 27 56  1  0
 27 57  1  0
 28 58  1  0
 28 59  1  0
 30 60  1  0
 30 61  1  0
 30 62  1  0
 31 63  1  0
 31 64  1  0
 32 65  1  0
 32 66  1  0
 33 67  1  0
 34 68  1  0
 36 69  1  0
 37 70  1  0
 38 71  1  0
 39 72  1  0
 40 73  1  0
M  END
>  <meeko>  (9) 
{"is_sidechain": false}

>  <vina_affinity_kcal_mol>  (9) 
-7.66

>  <pose_rank>  (9) 
9

$$$$

     RDKit          3D

 73 77  0  0  0  0  0  0  0  0999 V2000
  -33.3900  157.0530    4.7850 C   0  0  0  0  0  0  0  0  0  0  0  0
  -33.3070  155.8340    5.5260 O   0  0  0  0  0  0  0  0  0  0  0  0
  -34.2940  155.6780    6.4420 C   0  0  0  0  0  0  0  0  0  0  0  0
  -34.5770  156.4640    7.3320 O   0  0  0  0  0  0  0  0  0  0  0  0
  -35.0150  154.3940    6.2270 C   0  0  0  0  0  0  0  0  0  0  0  0
  -34.6080  153.1880    6.8360 C   0  0  0  0  0  0  0  0  0  0  0  0
  -35.3070  151.9910    6.6160 C   0  0  0  0  0  0  0  0  0  0  0  0
  -36.4090  152.0040    5.7770 C   0  0  0  0  0  0  0  0  0  0  0  0
  -36.8090  153.2150    5.1970 C   0  0  0  0  0  0  0  0  0  0  0  0
  -36.1410  154.4090    5.3950 C   0  0  0  0  0  0  0  0  0  0  0  0
  -37.9580  153.0430    4.4340 N   0  0  0  0  0  0  0  0  0  0  0  0
  -38.3910  151.7330    4.4700 C   0  0  0  0  0  0  0  0  0  0  0  0
  -39.3830  151.2750    3.9310 O   0  0  0  0  0  0  0  0  0  0  0  0
  -37.3810  150.9910    5.3190 C   0  0  0  0  0  0  0  0  0  0  0  0
  -37.4970  149.6520    5.5080 C   0  0  0  0  0  0  0  0  0  0  0  0
  -38.5720  148.9140    5.0180 N   0  0  0  0  0  0  0  0  0  0  0  0
  -38.7990  148.1160    3.8840 C   0  0  0  0  0  0  0  0  0  0  0  0
  -37.8340  147.3850    3.2010 C   0  0  0  0  0  0  0  0  0  0  0  0
  -38.1670  146.5720    2.1000 C   0  0  0  0  0  0  0  0  0  0  0  0
  -39.4880  146.4390    1.6470 C   0  0  0  0  0  0  0  0  0  0  0  0
  -39.8140  145.6190    0.4980 N   0  0  0  0  0  0  0  0  0  0  0  0
  -40.3990  144.3030    0.7570 C   0  0  0  0  0  0  0  0  0  0  0  0
  -39.6760  146.0980   -0.8240 C   0  0  0  0  0  0  0  0  0  0  0  0
  -40.5690  146.6970   -1.4280 O   0  0  0  0  0  0  0  0  0  0  0  0
  -38.3110  145.8150   -1.4980 C   0  0  0  0  0  0  0  0  0  0  0  0
  -37.2330  146.7720   -1.1870 N   0  0  0  0  0  0  0  0  0  0  0  0
  -37.1540  147.9100   -2.1090 C   0  0  0  0  0  0  0  0  0  0  0  0
  -36.1510  148.9940   -1.6250 C   0  0  0  0  0  0  0  0  0  0  0  0
  -34.9630  148.5130   -0.8830 N   0  0  0  0  0  0  0  0  0  0  0  0
  -35.1420  148.6900    0.5590 C   0  0  0  0  0  0  0  0  0  0  0  0
  -34.7150  147.0970   -1.2120 C   0  0  0  0  0  0  0  0  0  0  0  0
  -35.9170  146.1410   -0.9890 C   0  0  0  0  0  0  0  0  0  0  0  0
  -40.4540  147.1850    2.3290 C   0  0  0  0  0  0  0  0  0  0  0  0
  -40.1170  147.9960    3.4260 C   0  0  0  0  0  0  0  0  0  0  0  0
  -36.4820  148.9700    6.3340 C   0  0  0  0  0  0  0  0  0  0  0  0
  -36.6960  148.7700    7.7070 C   0  0  0  0  0  0  0  0  0  0  0  0
  -35.7370  148.1130    8.4810 C   0  0  0  0  0  0  0  0  0  0  0  0
  -34.5610  147.6520    7.8910 C   0  0  0  0  0  0  0  0  0  0  0  0
  -34.3380  147.8480    6.5270 C   0  0  0  0  0  0  0  0  0  0  0  0
  -35.2950  148.5040    5.7510 C   0  0  0  0  0  0  0  0  0  0  0  0
  -33.4478  157.9023    5.4816 H   0  0  0  0  0  0  0  0  0  0  0  0
  -32.4970  157.1585    4.1515 H   0  0  0  0  0  0  0  0  0  0  0  0
  -34.2891  157.0365    4.1515 H   0  0  0  0  0  0  0  0  0  0  0  0
  -33.7272  153.1860    7.4949 H   0  0  0  0  0  0  0  0  0  0  0  0
  -34.9850  151.0581    7.1018 H   0  0  0  0  0  0  0  0  0  0  0  0
  -36.4822  155.3384    4.9156 H   0  0  0  0  0  0  0  0  0  0  0  0
  -38.4520  153.7680    3.9370 H   0  0  0  0  0  0  0  0  0  0  0  0
  -39.4090  148.9960    5.6060 H   0  0  0  0  0  0  0  0  0  0  0  0
  -36.7853  147.4428    3.5281 H   0  0  0  0  0  0  0  0  0  0  0  0
  -37.3671  146.0249    1.5797 H   0  0  0  0  0  0  0  0  0  0  0  0
  -40.4710  144.1410    1.8426 H   0  0  0  0  0  0  0  0  0  0  0  0
  -41.4036  144.2542    0.3115 H   0  0  0  0  0  0  0  0  0  0  0  0
  -39.7622  143.5245    0.3115 H   0  0  0  0  0  0  0  0  0  0  0  0
  -37.9780  144.8160   -1.1802 H   0  0  0  0  0  0  0  0  0  0  0  0
  -38.4872  145.9035   -2.5802 H   0  0  0  0  0  0  0  0  0  0  0  0
  -36.8310  147.5445   -3.0949 H   0  0  0  0  0  0  0  0  0  0  0  0
  -38.1508  148.3725   -2.1582 H   0  0  0  0  0  0  0  0  0  0  0  0
  -35.7932  149.5376   -2.5118 H   0  0  0  0  0  0  0  0  0  0  0  0
  -36.7126  149.6092   -0.9066 H   0  0  0  0  0  0  0  0  0  0  0  0
  -34.4604  148.0160    1.0986 H   0  0  0  0  0  0  0  0  0  0  0  0
  -34.9185  149.7321    0.8310 H   0  0  0  0  0  0  0  0  0  0  0  0
  -36.1816  148.4549    0.8310 H   0  0  0  0  0  0  0  0  0  0  0  0
  -34.4285  147.0402   -2.2725 H   0  0  0  0  0  0  0  0  0  0  0  0
  -33.9274  146.7593   -0.5224 H   0  0  0  0  0  0  0  0  0  0  0  0
  -35.8266  145.3022   -1.6948 H   0  0  0  0  0  0  0  0  0  0  0  0
  -35.8750  145.8190    0.0620 H   0  0  0  0  0  0  0  0  0  0  0  0
  -41.5022  147.1359    1.9992 H   0  0  0  0  0  0  0  0  0  0  0  0
  -40.9131  148.5538    3.9409 H   0  0  0  0  0  0  0  0  0  0  0  0
  -37.6231  149.1324    8.1752 H   0  0  0  0  0  0  0  0  0  0  0  0
  -35.9096  147.9592    9.5564 H   0  0  0  0  0  0  0  0  0  0  0  0
  -33.8074  147.1328    8.5014 H   0  0  0  0  0  0  0  0  0  0  0  0
  -33.4084  147.4856    6.0638 H   0  0  0  0  0  0  0  0  0  0  0  0
  -35.1170  148.6562    4.6762 H   0  0  0  0  0  0  0  0  0  0  0  0
  1  2  1  0
  2  3  1  0
  3  4  2  0
  3  5  1  0
  5  6  1  0
  6  7  2  0
  7  8  1  0
  8  9  2  0
  9 10  1  0
  9 11  1  0
 11 12  1  0
 12 13  2  0
 12 14  1  0
 14 15  2  0
 15 16  1  0
 16 17  1  0
 17 18  1  0
 18 19  2  0
 19 20  1  0
 20 21  1  0
 21 22  1  0
 21 23  1  0
 23 24  2  0
 23 25  1  0
 25 26  1  0
 26 27  1  0
 27 28  1  0
 28 29  1  0
 29 30  1  0
 29 31  1  0
 31 32  1  0
 20 33  2  0
 33 34  1  0
 15 35  1  0
 35 36  2  0
 36 37  1  0
 37 38  2  0
 38 39  1  0
 39 40  2  0
 10  5  2  0
 34 17  2  0
 40 35  1  0
 14  8  1  0
 32 26  1  0
  1 41  1  0
  1 42  1  0
  1 43  1  0
  6 44  1  0
  7 45  1  0
 10 46  1  0
 11 47  1  0
 16 48  1  0
 18 49  1  0
 19 50  1  0
 22 51  1  0
 22 52  1  0
 22 53  1  0
 25 54  1  0
 25 55  1  0
 27 56  1  0
 27 57  1  0
 28 58  1  0
 28 59  1  0
 30 60  1  0
 30 61  1  0
 30 62  1  0
 31 63  1  0
 31 64  1  0
 32 65  1  0
 32 66  1  0
 33 67  1  0
 34 68  1  0
 36 69  1  0
 37 70  1  0
 38 71  1  0
 39 72  1  0
 40 73  1  0
M  END
>  <meeko>  (10) 
{"is_sidechain": false}

>  <vina_affinity_kcal_mol>  (10) 
-7.621

>  <pose_rank>  (10) 
10

$$$$
