
     RDKit          3D

 42 45  0  0  0  0  0  0  0  0999 V2000
  -11.1350    6.2010  -18.2020 C   0  0  0  0  0  0  0  0  0  0  0  0
  -10.4760    6.1810  -16.8910 N   0  0  0  0  0  0  0  0  0  0  0  0
   -9.6200    7.3380  -16.6290 C   0  0  0  0  0  0  0  0  0  0  0  0
   -9.8550    4.9200  -16.6710 C   0  0  0  0  0  0  0  0  0  0  0  0
   -8.8050    4.4780  -17.4900 C   0  0  0  0  0  0  0  0  0  0  0  0
   -8.2230    3.2290  -17.2970 C   0  0  0  0  0  0  0  0  0  0  0  0
   -8.6860    2.3780  -16.2870 C   0  0  0  0  0  0  0  0  0  0  0  0
   -8.0050    1.0840  -16.1160 C   0  0  0  0  0  0  0  0  0  0  0  0
   -6.9380    0.8550  -15.3360 C   0  0  0  0  0  0  0  0  0  0  0  0
   -6.1960    1.8430  -14.4680 C   0  0  0  0  0  0  0  0  0  0  0  0
   -6.4250    3.0220  -14.2840 O   0  0  0  0  0  0  0  0  0  0  0  0
   -5.1680    1.1080  -13.8930 N   0  0  0  0  0  0  0  0  0  0  0  0
   -5.1960   -0.2200  -14.3070 C   0  0  0  0  0  0  0  0  0  0  0  0
   -4.3260   -1.2230  -13.9310 C   0  0  0  0  0  0  0  0  0  0  0  0
   -4.5410   -2.4930  -14.4700 C   0  0  0  0  0  0  0  0  0  0  0  0
   -5.6070   -2.7270  -15.3600 C   0  0  0  0  0  0  0  0  0  0  0  0
   -6.4770   -1.6940  -15.7260 C   0  0  0  0  0  0  0  0  0  0  0  0
   -6.2580   -0.4380  -15.1900 C   0  0  0  0  0  0  0  0  0  0  0  0
   -9.7480    2.7850  -15.4390 C   0  0  0  0  0  0  0  0  0  0  0  0
  -10.2580    1.9640  -14.4020 C   0  0  0  0  0  0  0  0  0  0  0  0
  -11.2970    2.3840  -13.5700 C   0  0  0  0  0  0  0  0  0  0  0  0
  -11.8560    3.6380  -13.7500 C   0  0  0  0  0  0  0  0  0  0  0  0
  -11.3780    4.4650  -14.7670 C   0  0  0  0  0  0  0  0  0  0  0  0
  -10.3330    4.0670  -15.6320 C   0  0  0  0  0  0  0  0  0  0  0  0
  -12.2258    6.2341  -18.0636 H   0  0  0  0  0  0  0  0  0  0  0  0
  -10.8094    7.0897  -18.7626 H   0  0  0  0  0  0  0  0  0  0  0  0
  -10.8639    5.2942  -18.7626 H   0  0  0  0  0  0  0  0  0  0  0  0
   -9.5159    7.4787  -15.5430 H   0  0  0  0  0  0  0  0  0  0  0  0
   -8.6282    7.1685  -17.0735 H   0  0  0  0  0  0  0  0  0  0  0  0
  -10.0722    8.2368  -17.0735 H   0  0  0  0  0  0  0  0  0  0  0  0
   -8.4364    5.1286  -18.2967 H   0  0  0  0  0  0  0  0  0  0  0  0
   -7.3927    2.9080  -17.9432 H   0  0  0  0  0  0  0  0  0  0  0  0
   -8.4072    0.2283  -16.6782 H   0  0  0  0  0  0  0  0  0  0  0  0
   -4.5010    1.5170  -13.2580 H   0  0  0  0  0  0  0  0  0  0  0  0
   -3.4966   -1.0298  -13.2348 H   0  0  0  0  0  0  0  0  0  0  0  0
   -3.8699   -3.3204  -14.1962 H   0  0  0  0  0  0  0  0  0  0  0  0
   -5.7577   -3.7353  -15.7730 H   0  0  0  0  0  0  0  0  0  0  0  0
   -7.3110   -1.8756  -16.4199 H   0  0  0  0  0  0  0  0  0  0  0  0
   -9.8218    0.9659  -14.2484 H   0  0  0  0  0  0  0  0  0  0  0  0
  -11.6701    1.7218  -12.7749 H   0  0  0  0  0  0  0  0  0  0  0  0
  -12.6714    3.9799  -13.0956 H   0  0  0  0  0  0  0  0  0  0  0  0
  -11.8291    5.4594  -14.9001 H   0  0  0  0  0  0  0  0  0  0  0  0
  1  2  1  0
  2  3  1  0
  2  4  1  0
  4  5  2  0
  5  6  1  0
  6  7  2  0
  7  8  1  0
  8  9  2  0
  9 10  1  0
 10 11  2  0
 10 12  1  0
 12 13  1  0
 13 14  2  0
 14 15  1  0
 15 16  2  0
 16 17  1  0
 17 18  2  0
  7 19  1  0
 19 20  2  0
 20 21  1  0
 21 22  2  0
 22 23  1  0
 23 24  2  0
 24  4  1  0
 18  9  1  0
 24 19  1  0
 18 13  1  0
  1 25  1  0
  1 26  1  0
  1 27  1  0
  3 28  1  0
  3 29  1  0
  3 30  1  0
  5 31  1  0
  6 32  1  0
  8 33  1  0
 12 34  1  0
 14 35  1  0
 15 36  1  0
 16 37  1  0
 17 38  1  0
 20 39  1  0
 21 40  1  0
 22 41  1  0
 23 42  1  0
M  END
>  <meeko>  (1) 
{"is_sidechain": false}

>  <vina_affinity_kcal_mol>  (1) 
-8.757

>  <pose_rank>  (1) 
1

$$$$

     RDKit          3D

 42 45  0  0  0  0  0  0  0  0999 V2000
   -9.2810    7.6260  -17.6920 C   0  0  0  0  0  0  0  0  0  0  0  0
   -9.6750    6.3080  -18.2050 N   0  0  0  0  0  0  0  0  0  0  0  0
  -10.7060    6.3500  -19.2410 C   0  0  0  0  0  0  0  0  0  0  0  0
   -9.9510    5.4220  -17.1260 C   0  0  0  0  0  0  0  0  0  0  0  0
  -10.9690    5.7030  -16.2020 C   0  0  0  0  0  0  0  0  0  0  0  0
  -11.2130    4.8550  -15.1260 C   0  0  0  0  0  0  0  0  0  0  0  0
  -10.4350    3.7080  -14.9360 C   0  0  0  0  0  0  0  0  0  0  0  0
  -10.7680    2.8350  -13.7970 C   0  0  0  0  0  0  0  0  0  0  0  0
  -11.9780    2.7050  -13.2340 C   0  0  0  0  0  0  0  0  0  0  0  0
  -13.2600    3.4020  -13.6230 C   0  0  0  0  0  0  0  0  0  0  0  0
  -13.4580    4.1920  -14.5240 O   0  0  0  0  0  0  0  0  0  0  0  0
  -14.2050    2.9360  -12.7180 N   0  0  0  0  0  0  0  0  0  0  0  0
  -13.6500    2.0290  -11.8210 C   0  0  0  0  0  0  0  0  0  0  0  0
  -14.3020    1.3750  -10.7960 C   0  0  0  0  0  0  0  0  0  0  0  0
  -13.5460    0.5010  -10.0120 C   0  0  0  0  0  0  0  0  0  0  0  0
  -12.1760    0.3040  -10.2680 C   0  0  0  0  0  0  0  0  0  0  0  0
  -11.5360    0.9800  -11.3140 C   0  0  0  0  0  0  0  0  0  0  0  0
  -12.2900    1.8450  -12.0870 C   0  0  0  0  0  0  0  0  0  0  0  0
   -9.3940    3.3890  -15.8460 C   0  0  0  0  0  0  0  0  0  0  0  0
   -8.5750    2.2410  -15.7010 C   0  0  0  0  0  0  0  0  0  0  0  0
   -7.5610    1.9370  -16.6110 C   0  0  0  0  0  0  0  0  0  0  0  0
   -7.3380    2.7710  -17.6920 C   0  0  0  0  0  0  0  0  0  0  0  0
   -8.1250    3.9110  -17.8580 C   0  0  0  0  0  0  0  0  0  0  0  0
   -9.1550    4.2530  -16.9500 C   0  0  0  0  0  0  0  0  0  0  0  0
   -9.2864    7.6080  -16.5922 H   0  0  0  0  0  0  0  0  0  0  0  0
   -8.2702    7.8715  -18.0497 H   0  0  0  0  0  0  0  0  0  0  0  0
   -9.9912    8.3860  -18.0497 H   0  0  0  0  0  0  0  0  0  0  0  0
  -11.6987    6.3904  -18.7689 H   0  0  0  0  0  0  0  0  0  0  0  0
  -10.5609    7.2430  -19.8667 H   0  0  0  0  0  0  0  0  0  0  0  0
  -10.6340    5.4482  -19.8667 H   0  0  0  0  0  0  0  0  0  0  0  0
  -11.5830    6.6067  -16.3301 H   0  0  0  0  0  0  0  0  0  0  0  0
  -12.0235    5.0882  -14.4198 H   0  0  0  0  0  0  0  0  0  0  0  0
   -9.9503    2.2358  -13.3699 H   0  0  0  0  0  0  0  0  0  0  0  0
  -15.1660    3.2380  -12.7390 H   0  0  0  0  0  0  0  0  0  0  0  0
  -15.3732    1.5354  -10.6042 H   0  0  0  0  0  0  0  0  0  0  0  0
  -14.0271   -0.0403   -9.1840 H   0  0  0  0  0  0  0  0  0  0  0  0
  -11.6005   -0.3902   -9.6380 H   0  0  0  0  0  0  0  0  0  0  0  0
  -10.4653    0.8278  -11.5152 H   0  0  0  0  0  0  0  0  0  0  0  0
   -8.7435    1.5698  -14.8460 H   0  0  0  0  0  0  0  0  0  0  0  0
   -6.9423    1.0386  -16.4692 H   0  0  0  0  0  0  0  0  0  0  0  0
   -6.5444    2.5366  -18.4168 H   0  0  0  0  0  0  0  0  0  0  0  0
   -7.9388    4.5650  -18.7226 H   0  0  0  0  0  0  0  0  0  0  0  0
  1  2  1  0
  2  3  1  0
  2  4  1  0
  4  5  2  0
  5  6  1  0
  6  7  2  0
  7  8  1  0
  8  9  2  0
  9 10  1  0
 10 11  2  0
 10 12  1  0
 12 13  1  0
 13 14  2  0
 14 15  1  0
 15 16  2  0
 16 17  1  0
 17 18  2  0
  7 19  1  0
 19 20  2  0
 20 21  1  0
 21 22  2  0
 22 23  1  0
 23 24  2  0
 24  4  1  0
 18  9  1  0
 24 19  1  0
 18 13  1  0
  1 25  1  0
  1 26  1  0
  1 27  1  0
  3 28  1  0
  3 29  1  0
  3 30  1  0
  5 31  1  0
  6 32  1  0
  8 33  1  0
 12 34  1  0
 14 35  1  0
 15 36  1  0
 16 37  1  0
 17 38  1  0
 20 39  1  0
 21 40  1  0
 22 41  1  0
 23 42  1  0
M  END
>  <meeko>  (2) 
{"is_sidechain": false}

>  <vina_affinity_kcal_mol>  (2) 
-8.649

>  <pose_rank>  (2) 
2

$$$$

     RDKit          3D

 42 45  0  0  0  0  0  0  0  0999 V2000
  -10.1350    5.9950  -19.4610 C   0  0  0  0  0  0  0  0  0  0  0  0
  -10.0400    6.4180  -18.0590 N   0  0  0  0  0  0  0  0  0  0  0  0
   -9.6100    7.8040  -17.8760 C   0  0  0  0  0  0  0  0  0  0  0  0
   -9.3020    5.4620  -17.3050 C   0  0  0  0  0  0  0  0  0  0  0  0
   -7.9960    5.1040  -17.6730 C   0  0  0  0  0  0  0  0  0  0  0  0
   -7.2900    4.1420  -16.9570 C   0  0  0  0  0  0  0  0  0  0  0  0
   -7.8760    3.4990  -15.8610 C   0  0  0  0  0  0  0  0  0  0  0  0
   -7.0620    2.5150  -15.1280 C   0  0  0  0  0  0  0  0  0  0  0  0
   -7.0310    1.1940  -15.3570 C   0  0  0  0  0  0  0  0  0  0  0  0
   -7.8020    0.4160  -16.3970 C   0  0  0  0  0  0  0  0  0  0  0  0
   -8.5770    0.8250  -17.2380 O   0  0  0  0  0  0  0  0  0  0  0  0
   -7.4290   -0.9060  -16.1990 N   0  0  0  0  0  0  0  0  0  0  0  0
   -6.5130   -1.0290  -15.1580 C   0  0  0  0  0  0  0  0  0  0  0  0
   -5.9360   -2.1940  -14.6970 C   0  0  0  0  0  0  0  0  0  0  0  0
   -5.0360   -2.0850  -13.6350 C   0  0  0  0  0  0  0  0  0  0  0  0
   -4.7390   -0.8320  -13.0670 C   0  0  0  0  0  0  0  0  0  0  0  0
   -5.3380    0.3370  -13.5520 C   0  0  0  0  0  0  0  0  0  0  0  0
   -6.2290    0.2230  -14.6040 C   0  0  0  0  0  0  0  0  0  0  0  0
   -9.1960    3.8300  -15.4580 C   0  0  0  0  0  0  0  0  0  0  0  0
   -9.8390    3.2100  -14.3580 C   0  0  0  0  0  0  0  0  0  0  0  0
  -11.1350    3.5550  -13.9690 C   0  0  0  0  0  0  0  0  0  0  0  0
  -11.8240    4.5300  -14.6700 C   0  0  0  0  0  0  0  0  0  0  0  0
  -11.2180    5.1530  -15.7610 C   0  0  0  0  0  0  0  0  0  0  0  0
   -9.9100    4.8220  -16.1860 C   0  0  0  0  0  0  0  0  0  0  0  0
  -10.3758    4.9226  -19.5049 H   0  0  0  0  0  0  0  0  0  0  0  0
  -10.9265    6.5695  -19.9645 H   0  0  0  0  0  0  0  0  0  0  0  0
   -9.1739    6.1759  -19.9645 H   0  0  0  0  0  0  0  0  0  0  0  0
   -9.5407    8.0275  -16.8012 H   0  0  0  0  0  0  0  0  0  0  0  0
   -8.6252    7.9473  -18.3446 H   0  0  0  0  0  0  0  0  0  0  0  0
  -10.3408    8.4795  -18.3446 H   0  0  0  0  0  0  0  0  0  0  0  0
   -7.5239    5.5905  -18.5393 H   0  0  0  0  0  0  0  0  0  0  0  0
   -6.2628    3.8849  -17.2551 H   0  0  0  0  0  0  0  0  0  0  0  0
   -6.4216    2.8980  -14.3197 H   0  0  0  0  0  0  0  0  0  0  0  0
   -7.7950   -1.6600  -16.7580 H   0  0  0  0  0  0  0  0  0  0  0  0
   -6.1750   -3.1687  -15.1474 H   0  0  0  0  0  0  0  0  0  0  0  0
   -4.5531   -2.9898  -13.2373 H   0  0  0  0  0  0  0  0  0  0  0  0
   -4.0268   -0.7702  -12.2309 H   0  0  0  0  0  0  0  0  0  0  0  0
   -5.1069    1.3172  -13.1095 H   0  0  0  0  0  0  0  0  0  0  0  0
   -9.3013    2.4338  -13.7937 H   0  0  0  0  0  0  0  0  0  0  0  0
  -11.6060    3.0547  -13.1100 H   0  0  0  0  0  0  0  0  0  0  0  0
  -12.8436    4.8118  -14.3683 H   0  0  0  0  0  0  0  0  0  0  0  0
  -11.7755    5.9270  -16.3088 H   0  0  0  0  0  0  0  0  0  0  0  0
  1  2  1  0
  2  3  1  0
  2  4  1  0
  4  5  2  0
  5  6  1  0
  6  7  2  0
  7  8  1  0
  8  9  2  0
  9 10  1  0
 10 11  2  0
 10 12  1  0
 12 13  1  0
 13 14  2  0
 14 15  1  0
 15 16  2  0
 16 17  1  0
 17 18  2  0
  7 19  1  0
 19 20  2  0
 20 21  1  0
 21 22  2  0
 22 23  1  0
 23 24  2  0
 24  4  1  0
 18  9  1  0
 24 19  1  0
 18 13  1  0
  1 25  1  0
  1 26  1  0
  1 27  1  0
  3 28  1  0
  3 29  1  0
  3 30  1  0
  5 31  1  0
  6 32  1  0
  8 33  1  0
 12 34  1  0
 14 35  1  0
 15 36  1  0
 16 37  1  0
 17 38  1  0
 20 39  1  0
 21 40  1  0
 22 41  1  0
 23 42  1  0
M  END
>  <meeko>  (3) 
{"is_sidechain": false}

>  <vina_affinity_kcal_mol>  (3) 
-8.406

>  <pose_rank>  (3) 
3

$$$$

     RDKit          3D

 42 45  0  0  0  0  0  0  0  0999 V2000
  -12.9550    2.2320  -12.0570 C   0  0  0  0  0  0  0  0  0  0  0  0
  -12.6130    3.0280  -13.2420 N   0  0  0  0  0  0  0  0  0  0  0  0
  -13.7550    3.3600  -14.0930 C   0  0  0  0  0  0  0  0  0  0  0  0
  -11.5110    2.4430  -13.9270 C   0  0  0  0  0  0  0  0  0  0  0  0
  -11.0870    1.1380  -13.6330 C   0  0  0  0  0  0  0  0  0  0  0  0
   -9.9870    0.5810  -14.2780 C   0  0  0  0  0  0  0  0  0  0  0  0
   -9.2690    1.3200  -15.2240 C   0  0  0  0  0  0  0  0  0  0  0  0
   -8.1350    0.6600  -15.8930 C   0  0  0  0  0  0  0  0  0  0  0  0
   -6.8370    0.8580  -15.6190 C   0  0  0  0  0  0  0  0  0  0  0  0
   -6.2400    1.7810  -14.5830 C   0  0  0  0  0  0  0  0  0  0  0  0
   -6.8050    2.5030  -13.7860 O   0  0  0  0  0  0  0  0  0  0  0  0
   -4.8670    1.6290  -14.7230 N   0  0  0  0  0  0  0  0  0  0  0  0
   -4.5530    0.7140  -15.7230 C   0  0  0  0  0  0  0  0  0  0  0  0
   -3.2910    0.3260  -16.1220 C   0  0  0  0  0  0  0  0  0  0  0  0
   -3.2060   -0.6130  -17.1530 C   0  0  0  0  0  0  0  0  0  0  0  0
   -4.3700   -1.1330  -17.7510 C   0  0  0  0  0  0  0  0  0  0  0  0
   -5.6400   -0.7240  -17.3280 C   0  0  0  0  0  0  0  0  0  0  0  0
   -5.7170    0.2070  -16.3080 C   0  0  0  0  0  0  0  0  0  0  0  0
   -9.6630    2.6440  -15.5480 C   0  0  0  0  0  0  0  0  0  0  0  0
   -8.9720    3.4390  -16.4980 C   0  0  0  0  0  0  0  0  0  0  0  0
   -9.3790    4.7360  -16.8120 C   0  0  0  0  0  0  0  0  0  0  0  0
  -10.4890    5.2770  -16.1850 C   0  0  0  0  0  0  0  0  0  0  0  0
  -11.1850    4.5200  -15.2420 C   0  0  0  0  0  0  0  0  0  0  0  0
  -10.7950    3.2060  -14.8950 C   0  0  0  0  0  0  0  0  0  0  0  0
  -12.7099    2.8024  -11.1489 H   0  0  0  0  0  0  0  0  0  0  0  0
  -14.0309    2.0031  -12.0670 H   0  0  0  0  0  0  0  0  0  0  0  0
  -12.3805    1.2940  -12.0670 H   0  0  0  0  0  0  0  0  0  0  0  0
  -14.6208    3.6117  -13.4630 H   0  0  0  0  0  0  0  0  0  0  0  0
  -13.5009    4.2214  -14.7281 H   0  0  0  0  0  0  0  0  0  0  0  0
  -14.0023    2.4966  -14.7281 H   0  0  0  0  0  0  0  0  0  0  0  0
  -11.6319    0.5470  -12.8821 H   0  0  0  0  0  0  0  0  0  0  0  0
   -9.6797   -0.4485  -14.0421 H   0  0  0  0  0  0  0  0  0  0  0  0
   -8.3741   -0.0603  -16.6892 H   0  0  0  0  0  0  0  0  0  0  0  0
   -4.2080    2.1340  -14.1520 H   0  0  0  0  0  0  0  0  0  0  0  0
   -2.3884    0.7390  -15.6479 H   0  0  0  0  0  0  0  0  0  0  0  0
   -2.2186   -0.9499  -17.5016 H   0  0  0  0  0  0  0  0  0  0  0  0
   -4.2799   -1.8709  -18.5618 H   0  0  0  0  0  0  0  0  0  0  0  0
   -6.5500   -1.1310  -17.7930 H   0  0  0  0  0  0  0  0  0  0  0  0
   -8.0886    3.0203  -17.0023 H   0  0  0  0  0  0  0  0  0  0  0  0
   -8.8210    5.3260  -17.5540 H   0  0  0  0  0  0  0  0  0  0  0  0
  -10.8199    6.2973  -16.4289 H   0  0  0  0  0  0  0  0  0  0  0  0
  -12.0663    4.9600  -14.7523 H   0  0  0  0  0  0  0  0  0  0  0  0
  1  2  1  0
  2  3  1  0
  2  4  1  0
  4  5  2  0
  5  6  1  0
  6  7  2  0
  7  8  1  0
  8  9  2  0
  9 10  1  0
 10 11  2  0
 10 12  1  0
 12 13  1  0
 13 14  2  0
 14 15  1  0
 15 16  2  0
 16 17  1  0
 17 18  2  0
  7 19  1  0
 19 20  2  0
 20 21  1  0
 21 22  2  0
 22 23  1  0
 23 24  2  0
 24  4  1  0
 18  9  1  0
 24 19  1  0
 18 13  1  0
  1 25  1  0
  1 26  1  0
  1 27  1  0
  3 28  1  0
  3 29  1  0
  3 30  1  0
  5 31  1  0
  6 32  1  0
  8 33  1  0
 12 34  1  0
 14 35  1  0
 15 36  1  0
 16 37  1  0
 17 38  1  0
 20 39  1  0
 21 40  1  0
 22 41  1  0
 23 42  1  0
M  END
>  <meeko>  (4) 
{"is_sidechain": false}

>  <vina_affinity_kcal_mol>  (4) 
-8.092

>  <pose_rank>  (4) 
4

$$$$

     RDKit          3D

 42 45  0  0  0  0  0  0  0  0999 V2000
  -12.0460    0.3280   -8.6460 C   0  0  0  0  0  0  0  0  0  0  0  0
  -12.9290    0.4140   -9.8150 N   0  0  0  0  0  0  0  0  0  0  0  0
  -14.0130   -0.5690   -9.8240 C   0  0  0  0  0  0  0  0  0  0  0  0
  -12.1590    0.4600  -11.0120 C   0  0  0  0  0  0  0  0  0  0  0  0
  -11.0940   -0.4290  -11.2210 C   0  0  0  0  0  0  0  0  0  0  0  0
  -10.3190   -0.3580  -12.3750 C   0  0  0  0  0  0  0  0  0  0  0  0
  -10.5780    0.6150  -13.3460 C   0  0  0  0  0  0  0  0  0  0  0  0
   -9.7420    0.6140  -14.5580 C   0  0  0  0  0  0  0  0  0  0  0  0
   -8.7100    1.4360  -14.8000 C   0  0  0  0  0  0  0  0  0  0  0  0
   -8.1690    2.5310  -13.9120 C   0  0  0  0  0  0  0  0  0  0  0  0
   -8.5380    2.8700  -12.8060 O   0  0  0  0  0  0  0  0  0  0  0  0
   -7.1220    3.0880  -14.6350 N   0  0  0  0  0  0  0  0  0  0  0  0
   -6.9550    2.4570  -15.8630 C   0  0  0  0  0  0  0  0  0  0  0  0
   -6.0130    2.7550  -16.8250 C   0  0  0  0  0  0  0  0  0  0  0  0
   -6.0250    1.9870  -17.9930 C   0  0  0  0  0  0  0  0  0  0  0  0
   -6.9660    0.9550  -18.1660 C   0  0  0  0  0  0  0  0  0  0  0  0
   -7.9130    0.6720  -17.1760 C   0  0  0  0  0  0  0  0  0  0  0  0
   -7.8970    1.4350  -16.0220 C   0  0  0  0  0  0  0  0  0  0  0  0
  -11.6440    1.5360  -13.1710 C   0  0  0  0  0  0  0  0  0  0  0  0
  -11.9500    2.5420  -14.1210 C   0  0  0  0  0  0  0  0  0  0  0  0
  -13.0090    3.4340  -13.9380 C   0  0  0  0  0  0  0  0  0  0  0  0
  -13.7920    3.3430  -12.8000 C   0  0  0  0  0  0  0  0  0  0  0  0
  -13.5100    2.3660  -11.8450 C   0  0  0  0  0  0  0  0  0  0  0  0
  -12.4410    1.4530  -11.9960 C   0  0  0  0  0  0  0  0  0  0  0  0
  -12.6476    0.3866   -7.7270 H   0  0  0  0  0  0  0  0  0  0  0  0
  -11.5013   -0.6274   -8.6674 H   0  0  0  0  0  0  0  0  0  0  0  0
  -11.3272    1.1604   -8.6674 H   0  0  0  0  0  0  0  0  0  0  0  0
  -14.2893   -0.8196   -8.7892 H   0  0  0  0  0  0  0  0  0  0  0  0
  -14.8856   -0.1478  -10.3448 H   0  0  0  0  0  0  0  0  0  0  0  0
  -13.6789   -1.4785  -10.3448 H   0  0  0  0  0  0  0  0  0  0  0  0
  -10.8683   -1.1928  -10.4623 H   0  0  0  0  0  0  0  0  0  0  0  0
   -9.4963   -1.0727  -12.5246 H   0  0  0  0  0  0  0  0  0  0  0  0
   -9.9854   -0.1267  -15.3340 H   0  0  0  0  0  0  0  0  0  0  0  0
   -6.5700    3.8530  -14.2820 H   0  0  0  0  0  0  0  0  0  0  0  0
   -5.2820    3.5640  -16.6793 H   0  0  0  0  0  0  0  0  0  0  0  0
   -5.2905    2.1917  -18.7859 H   0  0  0  0  0  0  0  0  0  0  0  0
   -6.9568    0.3625  -19.0928 H   0  0  0  0  0  0  0  0  0  0  0  0
   -8.6492   -0.1340  -17.3112 H   0  0  0  0  0  0  0  0  0  0  0  0
  -11.3352    2.6228  -15.0296 H   0  0  0  0  0  0  0  0  0  0  0  0
  -13.2198    4.2047  -14.6940 H   0  0  0  0  0  0  0  0  0  0  0  0
  -14.6319    4.0372  -12.6496 H   0  0  0  0  0  0  0  0  0  0  0  0
  -14.1398    2.3039  -10.9453 H   0  0  0  0  0  0  0  0  0  0  0  0
  1  2  1  0
  2  3  1  0
  2  4  1  0
  4  5  2  0
  5  6  1  0
  6  7  2  0
  7  8  1  0
  8  9  2  0
  9 10  1  0
 10 11  2  0
 10 12  1  0
 12 13  1  0
 13 14  2  0
 14 15  1  0
 15 16  2  0
 16 17  1  0
 17 18  2  0
  7 19  1  0
 19 20  2  0
 20 21  1  0
 21 22  2  0
 22 23  1  0
 23 24  2  0
 24  4  1  0
 18  9  1  0
 24 19  1  0
 18 13  1  0
  1 25  1  0
  1 26  1  0
  1 27  1  0
  3 28  1  0
  3 29  1  0
  3 30  1  0
  5 31  1  0
  6 32  1  0
  8 33  1  0
 12 34  1  0
 14 35  1  0
 15 36  1  0
 16 37  1  0
 17 38  1  0
 20 39  1  0
 21 40  1  0
 22 41  1  0
 23 42  1  0
M  END
>  <meeko>  (5) 
{"is_sidechain": false}

>  <vina_affinity_kcal_mol>  (5) 
-8.01

>  <pose_rank>  (5) 
5

$$$$

     RDKit          3D

 42 45  0  0  0  0  0  0  0  0999 V2000
  -10.8150    5.7390  -18.4380 C   0  0  0  0  0  0  0  0  0  0  0  0
  -10.2290    5.9420  -17.1080 N   0  0  0  0  0  0  0  0  0  0  0  0
  -10.0340    7.3450  -16.7440 C   0  0  0  0  0  0  0  0  0  0  0  0
   -9.0770    5.1210  -16.9460 C   0  0  0  0  0  0  0  0  0  0  0  0
   -7.9720    5.2490  -17.8010 C   0  0  0  0  0  0  0  0  0  0  0  0
   -6.8620    4.4210  -17.6650 C   0  0  0  0  0  0  0  0  0  0  0  0
   -6.8330    3.4290  -16.6790 C   0  0  0  0  0  0  0  0  0  0  0  0
   -5.6150    2.6090  -16.5680 C   0  0  0  0  0  0  0  0  0  0  0  0
   -5.4720    1.3510  -17.0110 C   0  0  0  0  0  0  0  0  0  0  0  0
   -6.4980    0.4950  -17.7140 C   0  0  0  0  0  0  0  0  0  0  0  0
   -7.6350    0.7740  -18.0370 O   0  0  0  0  0  0  0  0  0  0  0  0
   -5.8570   -0.7170  -17.9350 N   0  0  0  0  0  0  0  0  0  0  0  0
   -4.5520   -0.7010  -17.4520 C   0  0  0  0  0  0  0  0  0  0  0  0
   -3.6370   -1.7310  -17.5060 C   0  0  0  0  0  0  0  0  0  0  0  0
   -2.3750   -1.4960  -16.9560 C   0  0  0  0  0  0  0  0  0  0  0  0
   -2.0630   -0.2530  -16.3740 C   0  0  0  0  0  0  0  0  0  0  0  0
   -3.0090    0.7780  -16.3300 C   0  0  0  0  0  0  0  0  0  0  0  0
   -4.2570    0.5390  -16.8760 C   0  0  0  0  0  0  0  0  0  0  0  0
   -7.9310    3.2640  -15.7960 C   0  0  0  0  0  0  0  0  0  0  0  0
   -7.9560    2.2760  -14.7800 C   0  0  0  0  0  0  0  0  0  0  0  0
   -9.0400    2.1340  -13.9130 C   0  0  0  0  0  0  0  0  0  0  0  0
  -10.1320    2.9770  -14.0370 C   0  0  0  0  0  0  0  0  0  0  0  0
  -10.1380    3.9550  -15.0310 C   0  0  0  0  0  0  0  0  0  0  0  0
   -9.0590    4.1200  -15.9310 C   0  0  0  0  0  0  0  0  0  0  0  0
  -11.8496    5.3806  -18.3320 H   0  0  0  0  0  0  0  0  0  0  0  0
  -10.8113    6.6908  -18.9895 H   0  0  0  0  0  0  0  0  0  0  0  0
  -10.2234    4.9934  -18.9895 H   0  0  0  0  0  0  0  0  0  0  0  0
  -10.0206    7.4411  -15.6483 H   0  0  0  0  0  0  0  0  0  0  0  0
   -9.0778    7.7009  -17.1550 H   0  0  0  0  0  0  0  0  0  0  0  0
  -10.8569    7.9482  -17.1550 H   0  0  0  0  0  0  0  0  0  0  0  0
   -7.9833    6.0150  -18.5903 H   0  0  0  0  0  0  0  0  0  0  0  0
   -6.0009    4.5474  -18.3378 H   0  0  0  0  0  0  0  0  0  0  0  0
   -4.7444    3.0693  -16.0779 H   0  0  0  0  0  0  0  0  0  0  0  0
   -6.3100   -1.4910  -18.3940 H   0  0  0  0  0  0  0  0  0  0  0  0
   -3.8907   -2.6985  -17.9637 H   0  0  0  0  0  0  0  0  0  0  0  0
   -1.6158   -2.2917  -16.9779 H   0  0  0  0  0  0  0  0  0  0  0  0
   -1.0622   -0.0894  -15.9479 H   0  0  0  0  0  0  0  0  0  0  0  0
   -2.7668    1.7496  -15.8746 H   0  0  0  0  0  0  0  0  0  0  0  0
   -7.0946    1.6006  -14.6717 H   0  0  0  0  0  0  0  0  0  0  0  0
   -9.0274    1.3565  -13.1350 H   0  0  0  0  0  0  0  0  0  0  0  0
  -10.9894    2.8756  -13.3554 H   0  0  0  0  0  0  0  0  0  0  0  0
  -11.0100    4.6198  -15.1181 H   0  0  0  0  0  0  0  0  0  0  0  0
  1  2  1  0
  2  3  1  0
  2  4  1  0
  4  5  2  0
  5  6  1  0
  6  7  2  0
  7  8  1  0
  8  9  2  0
  9 10  1  0
 10 11  2  0
 10 12  1  0
 12 13  1  0
 13 14  2  0
 14 15  1  0
 15 16  2  0
 16 17  1  0
 17 18  2  0
  7 19  1  0
 19 20  2  0
 20 21  1  0
 21 22  2  0
 22 23  1  0
 23 24  2  0
 24  4  1  0
 18  9  1  0
 24 19  1  0
 18 13  1  0
  1 25  1  0
  1 26  1  0
  1 27  1  0
  3 28  1  0
  3 29  1  0
  3 30  1  0
  5 31  1  0
  6 32  1  0
  8 33  1  0
 12 34  1  0
 14 35  1  0
 15 36  1  0
 16 37  1  0
 17 38  1  0
 20 39  1  0
 21 40  1  0
 22 41  1  0
 23 42  1  0
M  END
>  <meeko>  (6) 
{"is_sidechain": false}

>  <vina_affinity_kcal_mol>  (6) 
-7.685

>  <pose_rank>  (6) 
6

$$$$

     RDKit          3D

 42 45  0  0  0  0  0  0  0  0999 V2000
  -15.2460   -2.4090   -6.0230 C   0  0  0  0  0  0  0  0  0  0  0  0
  -13.8790   -2.8650   -6.2980 N   0  0  0  0  0  0  0  0  0  0  0  0
  -13.0310   -2.9760   -5.1110 C   0  0  0  0  0  0  0  0  0  0  0  0
  -13.3130   -2.1120   -7.3650 C   0  0  0  0  0  0  0  0  0  0  0  0
  -13.0100   -0.7510   -7.2080 C   0  0  0  0  0  0  0  0  0  0  0  0
  -12.4920   -0.0070   -8.2630 C   0  0  0  0  0  0  0  0  0  0  0  0
  -12.2760   -0.6000   -9.5120 C   0  0  0  0  0  0  0  0  0  0  0  0
  -11.6950    0.2350  -10.5760 C   0  0  0  0  0  0  0  0  0  0  0  0
  -12.3550    1.1400  -11.3140 C   0  0  0  0  0  0  0  0  0  0  0  0
  -13.8160    1.5130  -11.2320 C   0  0  0  0  0  0  0  0  0  0  0  0
  -14.6720    1.0930  -10.4790 O   0  0  0  0  0  0  0  0  0  0  0  0
  -13.9920    2.4740  -12.2190 N   0  0  0  0  0  0  0  0  0  0  0  0
  -12.8050    2.7360  -12.8950 C   0  0  0  0  0  0  0  0  0  0  0  0
  -12.6210    3.6320  -13.9280 C   0  0  0  0  0  0  0  0  0  0  0  0
  -11.3360    3.7370  -14.4630 C   0  0  0  0  0  0  0  0  0  0  0  0
  -10.2800    2.9540  -13.9600 C   0  0  0  0  0  0  0  0  0  0  0  0
  -10.4900    2.0520  -12.9110 C   0  0  0  0  0  0  0  0  0  0  0  0
  -11.7660    1.9520  -12.3850 C   0  0  0  0  0  0  0  0  0  0  0  0
  -12.5730   -1.9730   -9.7140 C   0  0  0  0  0  0  0  0  0  0  0  0
  -12.3750   -2.6250  -10.9570 C   0  0  0  0  0  0  0  0  0  0  0  0
  -12.6630   -3.9790  -11.1360 C   0  0  0  0  0  0  0  0  0  0  0  0
  -13.1550   -4.7210  -10.0750 C   0  0  0  0  0  0  0  0  0  0  0  0
  -13.3650   -4.1040   -8.8410 C   0  0  0  0  0  0  0  0  0  0  0  0
  -13.0920   -2.7330   -8.6290 C   0  0  0  0  0  0  0  0  0  0  0  0
  -15.4032   -2.3565   -4.9356 H   0  0  0  0  0  0  0  0  0  0  0  0
  -15.3957   -1.4123   -6.4636 H   0  0  0  0  0  0  0  0  0  0  0  0
  -15.9641   -3.1163   -6.4636 H   0  0  0  0  0  0  0  0  0  0  0  0
  -13.6528   -2.8946   -4.2073 H   0  0  0  0  0  0  0  0  0  0  0  0
  -12.5179   -3.9490   -5.1166 H   0  0  0  0  0  0  0  0  0  0  0  0
  -12.2847   -2.1679   -5.1166 H   0  0  0  0  0  0  0  0  0  0  0  0
  -13.1846   -0.2654   -6.2366 H   0  0  0  0  0  0  0  0  0  0  0  0
  -12.2503    1.0558   -8.1144 H   0  0  0  0  0  0  0  0  0  0  0  0
  -10.6228    0.1051  -10.7847 H   0  0  0  0  0  0  0  0  0  0  0  0
  -14.8840    2.9080  -12.3970 H   0  0  0  0  0  0  0  0  0  0  0  0
  -13.4531    4.2389  -14.3143 H   0  0  0  0  0  0  0  0  0  0  0  0
  -11.1464    4.4400  -15.2875 H   0  0  0  0  0  0  0  0  0  0  0  0
   -9.2756    3.0525  -14.3976 H   0  0  0  0  0  0  0  0  0  0  0  0
   -9.6652    1.4406  -12.5162 H   0  0  0  0  0  0  0  0  0  0  0  0
  -11.9825   -2.0464  -11.8062 H   0  0  0  0  0  0  0  0  0  0  0  0
  -12.5001   -4.4543  -12.1146 H   0  0  0  0  0  0  0  0  0  0  0  0
  -13.3789   -5.7902  -10.2042 H   0  0  0  0  0  0  0  0  0  0  0  0
  -13.7557   -4.7040   -8.0059 H   0  0  0  0  0  0  0  0  0  0  0  0
  1  2  1  0
  2  3  1  0
  2  4  1  0
  4  5  2  0
  5  6  1  0
  6  7  2  0
  7  8  1  0
  8  9  2  0
  9 10  1  0
 10 11  2  0
 10 12  1  0
 12 13  1  0
 13 14  2  0
 14 15  1  0
 15 16  2  0
 16 17  1  0
 17 18  2  0
  7 19  1  0
 19 20  2  0
 20 21  1  0
 21 22  2  0
 22 23  1  0
 23 24  2  0
 24  4  1  0
 18  9  1  0
 24 19  1  0
 18 13  1  0
  1 25  1  0
  1 26  1  0
  1 27  1  0
  3 28  1  0
  3 29  1  0
  3 30  1  0
  5 31  1  0
  6 32  1  0
  8 33  1  0
 12 34  1  0
 14 35  1  0
 15 36  1  0
 16 37  1  0
 17 38  1  0
 20 39  1  0
 21 40  1  0
 22 41  1  0
 23 42  1  0
M  END
>  <meeko>  (7) 
{"is_sidechain": false}

>  <vina_affinity_kcal_mol>  (7) 
-7.602

>  <pose_rank>  (7) 
7

$$$$

     RDKit          3D

 42 45  0  0  0  0  0  0  0  0999 V2000
  -13.9410   -4.4670   -6.8760 C   0  0  0  0  0  0  0  0  0  0  0  0
  -14.5010   -3.1110   -6.8480 N   0  0  0  0  0  0  0  0  0  0  0  0
  -15.9610   -3.0610   -6.9220 C   0  0  0  0  0  0  0  0  0  0  0  0
  -13.8290   -2.2810   -7.7900 C   0  0  0  0  0  0  0  0  0  0  0  0
  -13.8660   -2.5690   -9.1620 C   0  0  0  0  0  0  0  0  0  0  0  0
  -13.1790   -1.7780  -10.0780 C   0  0  0  0  0  0  0  0  0  0  0  0
  -12.4210   -0.6850   -9.6440 C   0  0  0  0  0  0  0  0  0  0  0  0
  -11.7450    0.1300  -10.6680 C   0  0  0  0  0  0  0  0  0  0  0  0
  -12.3000    1.1310  -11.3670 C   0  0  0  0  0  0  0  0  0  0  0  0
  -13.7140    1.6520  -11.2770 C   0  0  0  0  0  0  0  0  0  0  0  0
  -14.6160    1.2920  -10.5480 O   0  0  0  0  0  0  0  0  0  0  0  0
  -13.7790    2.6680  -12.2210 N   0  0  0  0  0  0  0  0  0  0  0  0
  -12.5640    2.8330  -12.8780 C   0  0  0  0  0  0  0  0  0  0  0  0
  -12.2770    3.7490  -13.8690 C   0  0  0  0  0  0  0  0  0  0  0  0
  -10.9820    3.7410  -14.3930 C   0  0  0  0  0  0  0  0  0  0  0  0
  -10.0190    2.8310  -13.9190 C   0  0  0  0  0  0  0  0  0  0  0  0
  -10.3330    1.9100  -12.9130 C   0  0  0  0  0  0  0  0  0  0  0  0
  -11.6180    1.9230  -12.3980 C   0  0  0  0  0  0  0  0  0  0  0  0
  -12.3550   -0.3610   -8.2640 C   0  0  0  0  0  0  0  0  0  0  0  0
  -11.6030    0.7340   -7.7690 C   0  0  0  0  0  0  0  0  0  0  0  0
  -11.5560    1.0440   -6.4090 C   0  0  0  0  0  0  0  0  0  0  0  0
  -12.2620    0.2680   -5.5050 C   0  0  0  0  0  0  0  0  0  0  0  0
  -13.0070   -0.8190   -5.9630 C   0  0  0  0  0  0  0  0  0  0  0  0
  -13.0680   -1.1650   -7.3330 C   0  0  0  0  0  0  0  0  0  0  0  0
  -13.7935   -4.8241   -5.8461 H   0  0  0  0  0  0  0  0  0  0  0  0
  -14.6350   -5.1395   -7.4014 H   0  0  0  0  0  0  0  0  0  0  0  0
  -12.9747   -4.4539   -7.4014 H   0  0  0  0  0  0  0  0  0  0  0  0
  -16.3794   -3.0467   -5.9048 H   0  0  0  0  0  0  0  0  0  0  0  0
  -16.2700   -2.1517   -7.4584 H   0  0  0  0  0  0  0  0  0  0  0  0
  -16.3315   -3.9470   -7.4584 H   0  0  0  0  0  0  0  0  0  0  0  0
  -14.4463   -3.4325   -9.5192 H   0  0  0  0  0  0  0  0  0  0  0  0
  -13.2323   -2.0138  -11.1511 H   0  0  0  0  0  0  0  0  0  0  0  0
  -10.6908   -0.1033  -10.8781 H   0  0  0  0  0  0  0  0  0  0  0  0
  -14.6180    3.2010  -12.3840 H   0  0  0  0  0  0  0  0  0  0  0  0
  -13.0369    4.4568  -14.2317 H   0  0  0  0  0  0  0  0  0  0  0  0
  -10.7119    4.4545  -15.1855 H   0  0  0  0  0  0  0  0  0  0  0  0
   -9.0050    2.8437  -14.3452 H   0  0  0  0  0  0  0  0  0  0  0  0
   -9.5814    1.1973  -12.5427 H   0  0  0  0  0  0  0  0  0  0  0  0
  -11.0395    1.3582   -8.4782 H   0  0  0  0  0  0  0  0  0  0  0  0
  -10.9615    1.9000   -6.0571 H   0  0  0  0  0  0  0  0  0  0  0  0
  -12.2355    0.5074   -4.4317 H   0  0  0  0  0  0  0  0  0  0  0  0
  -13.5649   -1.4265   -5.2352 H   0  0  0  0  0  0  0  0  0  0  0  0
  1  2  1  0
  2  3  1  0
  2  4  1  0
  4  5  2  0
  5  6  1  0
  6  7  2  0
  7  8  1  0
  8  9  2  0
  9 10  1  0
 10 11  2  0
 10 12  1  0
 12 13  1  0
 13 14  2  0
 14 15  1  0
 15 16  2  0
 16 17  1  0
 17 18  2  0
  7 19  1  0
 19 20  2  0
 20 21  1  0
 21 22  2  0
 22 23  1  0
 23 24  2  0
 24  4  1  0
 18  9  1  0
 24 19  1  0
 18 13  1  0
  1 25  1  0
  1 26  1  0
  1 27  1  0
  3 28  1  0
  3 29  1  0
  3 30  1  0
  5 31  1  0
  6 32  1  0
  8 33  1  0
 12 34  1  0
 14 35  1  0
 15 36  1  0
 16 37  1  0
 17 38  1  0
 20 39  1  0
 21 40  1  0
 22 41  1  0
 23 42  1  0
M  END
>  <meeko>  (8) 
{"is_sidechain": false}

>  <vina_affinity_kcal_mol>  (8) 
-7.596

>  <pose_rank>  (8) 
8

$$$$

     RDKit          3D

 42 45  0  0  0  0  0  0  0  0999 V2000
   -6.9750    1.7780  -18.2590 C   0  0  0  0  0  0  0  0  0  0  0  0
   -7.2020    3.0550  -17.5720 N   0  0  0  0  0  0  0  0  0  0  0  0
   -5.9870    3.6850  -17.0570 C   0  0  0  0  0  0  0  0  0  0  0  0
   -8.2520    2.9220  -16.6200 C   0  0  0  0  0  0  0  0  0  0  0  0
   -8.3910    1.7550  -15.8540 C   0  0  0  0  0  0  0  0  0  0  0  0
   -9.4390    1.6120  -14.9510 C   0  0  0  0  0  0  0  0  0  0  0  0
  -10.3890    2.6280  -14.7990 C   0  0  0  0  0  0  0  0  0  0  0  0
  -11.4550    2.4270  -13.8020 C   0  0  0  0  0  0  0  0  0  0  0  0
  -11.4060    1.5850  -12.7590 C   0  0  0  0  0  0  0  0  0  0  0  0
  -10.2760    0.6640  -12.3640 C   0  0  0  0  0  0  0  0  0  0  0  0
   -9.1910    0.5180  -12.8880 O   0  0  0  0  0  0  0  0  0  0  0  0
  -10.7390    0.0000  -11.2350 N   0  0  0  0  0  0  0  0  0  0  0  0
  -12.0230    0.4120  -10.8910 C   0  0  0  0  0  0  0  0  0  0  0  0
  -12.7780   -0.0400   -9.8280 C   0  0  0  0  0  0  0  0  0  0  0  0
  -14.0500    0.5140   -9.6660 C   0  0  0  0  0  0  0  0  0  0  0  0
  -14.5280    1.4930  -10.5580 C   0  0  0  0  0  0  0  0  0  0  0  0
  -13.7430    1.9350  -11.6290 C   0  0  0  0  0  0  0  0  0  0  0  0
  -12.4850    1.3820  -11.7850 C   0  0  0  0  0  0  0  0  0  0  0  0
  -10.2880    3.8230  -15.5570 C   0  0  0  0  0  0  0  0  0  0  0  0
  -11.2220    4.8840  -15.4440 C   0  0  0  0  0  0  0  0  0  0  0  0
  -11.1010    6.0570  -16.1910 C   0  0  0  0  0  0  0  0  0  0  0  0
  -10.0420    6.2040  -17.0700 C   0  0  0  0  0  0  0  0  0  0  0  0
   -9.1100    5.1750  -17.2050 C   0  0  0  0  0  0  0  0  0  0  0  0
   -9.2080    3.9700  -16.4710 C   0  0  0  0  0  0  0  0  0  0  0  0
   -6.8333    0.9810  -17.5142 H   0  0  0  0  0  0  0  0  0  0  0  0
   -7.8451    1.5408  -18.8889 H   0  0  0  0  0  0  0  0  0  0  0  0
   -6.0765    1.8551  -18.8889 H   0  0  0  0  0  0  0  0  0  0  0  0
   -6.0066    3.6748  -15.9572 H   0  0  0  0  0  0  0  0  0  0  0  0
   -5.1068    3.1297  -17.4132 H   0  0  0  0  0  0  0  0  0  0  0  0
   -5.9337    4.7244  -17.4132 H   0  0  0  0  0  0  0  0  0  0  0  0
   -7.6602    0.9409  -15.9693 H   0  0  0  0  0  0  0  0  0  0  0  0
   -9.5217    0.6933  -14.3518 H   0  0  0  0  0  0  0  0  0  0  0  0
  -12.3731    3.0205  -13.9239 H   0  0  0  0  0  0  0  0  0  0  0  0
  -10.1860   -0.6880  -10.7500 H   0  0  0  0  0  0  0  0  0  0  0  0
  -12.3941   -0.8048   -9.1369 H   0  0  0  0  0  0  0  0  0  0  0  0
  -14.6856    0.1816   -8.8320 H   0  0  0  0  0  0  0  0  0  0  0  0
  -15.5326    1.9164  -10.4110 H   0  0  0  0  0  0  0  0  0  0  0  0
  -14.1156    2.6998  -12.3263 H   0  0  0  0  0  0  0  0  0  0  0  0
  -12.0667    4.7796  -14.7472 H   0  0  0  0  0  0  0  0  0  0  0  0
  -11.8439    6.8608  -16.0816 H   0  0  0  0  0  0  0  0  0  0  0  0
   -9.9359    7.1271  -17.6588 H   0  0  0  0  0  0  0  0  0  0  0  0
   -8.2715    5.3049  -17.9051 H   0  0  0  0  0  0  0  0  0  0  0  0
  1  2  1  0
  2  3  1  0
  2  4  1  0
  4  5  2  0
  5  6  1  0
  6  7  2  0
  7  8  1  0
  8  9  2  0
  9 10  1  0
 10 11  2  0
 10 12  1  0
 12 13  1  0
 13 14  2  0
 14 15  1  0
 15 16  2  0
 16 17  1  0
 17 18  2  0
  7 19  1  0
 19 20  2  0
 20 21  1  0
 21 22  2  0
 22 23  1  0
 23 24  2  0
 24  4  1  0
 18  9  1  0
 24 19  1  0
 18 13  1  0
  1 25  1  0
  1 26  1  0
  1 27  1  0
  3 28  1  0
  3 29  1  0
  3 30  1  0
  5 31  1  0
  6 32  1  0
  8 33  1  0
 12 34  1  0
 14 35  1  0
 15 36  1  0
 16 37  1  0
 17 38  1  0
 20 39  1  0
 21 40  1  0
 22 41  1  0
 23 42  1  0
M  END
>  <meeko>  (9) 
{"is_sidechain": false}

>  <vina_affinity_kcal_mol>  (9) 
-7.562

>  <pose_rank>  (9) 
9

$$$$

     RDKit          3D

 42 45  0  0  0  0  0  0  0  0999 V2000
  -12.8310   -5.0290   -6.8530 C   0  0  0  0  0  0  0  0  0  0  0  0
  -13.9420   -4.1200   -6.5460 N   0  0  0  0  0  0  0  0  0  0  0  0
  -15.2410   -4.7790   -6.4170 C   0  0  0  0  0  0  0  0  0  0  0  0
  -13.9260   -3.0060   -7.4320 C   0  0  0  0  0  0  0  0  0  0  0  0
  -14.3480   -3.1360   -8.7640 C   0  0  0  0  0  0  0  0  0  0  0  0
  -14.2970   -2.0560   -9.6400 C   0  0  0  0  0  0  0  0  0  0  0  0
  -13.8070   -0.8170   -9.2110 C   0  0  0  0  0  0  0  0  0  0  0  0
  -13.8100    0.2930  -10.1780 C   0  0  0  0  0  0  0  0  0  0  0  0
  -12.7830    0.6580  -10.9590 C   0  0  0  0  0  0  0  0  0  0  0  0
  -11.4100    0.0340  -11.0350 C   0  0  0  0  0  0  0  0  0  0  0  0
  -10.9710   -0.9240  -10.4310 O   0  0  0  0  0  0  0  0  0  0  0  0
  -10.7260    0.7950  -11.9740 N   0  0  0  0  0  0  0  0  0  0  0  0
  -11.5240    1.8130  -12.4860 C   0  0  0  0  0  0  0  0  0  0  0  0
  -11.1640    2.7490  -13.4340 C   0  0  0  0  0  0  0  0  0  0  0  0
  -12.1300    3.6860  -13.8070 C   0  0  0  0  0  0  0  0  0  0  0  0
  -13.4140    3.6650  -13.2310 C   0  0  0  0  0  0  0  0  0  0  0  0
  -13.7560    2.7060  -12.2710 C   0  0  0  0  0  0  0  0  0  0  0  0
  -12.7950    1.7800  -11.9050 C   0  0  0  0  0  0  0  0  0  0  0  0
  -13.3670   -0.6440   -7.8730 C   0  0  0  0  0  0  0  0  0  0  0  0
  -12.8600    0.5870   -7.3860 C   0  0  0  0  0  0  0  0  0  0  0  0
  -12.4410    0.7420   -6.0630 C   0  0  0  0  0  0  0  0  0  0  0  0
  -12.5170   -0.3300   -5.1900 C   0  0  0  0  0  0  0  0  0  0  0  0
  -13.0060   -1.5550   -5.6430 C   0  0  0  0  0  0  0  0  0  0  0  0
  -13.4310   -1.7480   -6.9790 C   0  0  0  0  0  0  0  0  0  0  0  0
  -12.3856   -5.3934   -5.9155 H   0  0  0  0  0  0  0  0  0  0  0  0
  -13.2062   -5.8825   -7.4368 H   0  0  0  0  0  0  0  0  0  0  0  0
  -12.0687   -4.4923   -7.4368 H   0  0  0  0  0  0  0  0  0  0  0  0
  -15.4851   -4.9028   -5.3516 H   0  0  0  0  0  0  0  0  0  0  0  0
  -16.0139   -4.1640   -6.9012 H   0  0  0  0  0  0  0  0  0  0  0  0
  -15.2012   -5.7659   -6.9012 H   0  0  0  0  0  0  0  0  0  0  0  0
  -14.7247   -4.1059   -9.1209 H   0  0  0  0  0  0  0  0  0  0  0  0
  -14.6442   -2.1768  -10.6768 H   0  0  0  0  0  0  0  0  0  0  0  0
  -14.7387    0.8756  -10.2680 H   0  0  0  0  0  0  0  0  0  0  0  0
   -9.7700    0.6050  -12.2300 H   0  0  0  0  0  0  0  0  0  0  0  0
  -10.1575    2.7567  -13.8776 H   0  0  0  0  0  0  0  0  0  0  0  0
  -11.8845    4.4495  -14.5599 H   0  0  0  0  0  0  0  0  0  0  0  0
  -14.1592    4.4129  -13.5398 H   0  0  0  0  0  0  0  0  0  0  0  0
  -14.7594    2.6887  -11.8205 H   0  0  0  0  0  0  0  0  0  0  0  0
  -12.7947    1.4455   -8.0706 H   0  0  0  0  0  0  0  0  0  0  0  0
  -12.0525    1.7109   -5.7161 H   0  0  0  0  0  0  0  0  0  0  0  0
  -12.1935   -0.2161   -4.1449 H   0  0  0  0  0  0  0  0  0  0  0  0
  -13.0632   -2.3984   -4.9392 H   0  0  0  0  0  0  0  0  0  0  0  0
  1  2  1  0
  2  3  1  0
  2  4  1  0
  4  5  2  0
  5  6  1  0
  6  7  2  0
  7  8  1  0
  8  9  2  0
  9 10  1  0
 10 11  2  0
 10 12  1  0
 12 13  1  0
 13 14  2  0
 14 15  1  0
 15 16  2  0
 16 17  1  0
 17 18  2  0
  7 19  1  0
 19 20  2  0
 20 21  1  0
 21 22  2  0
 22 23  1  0
 23 24  2  0
 24  4  1  0
 18  9  1  0
 24 19  1  0
 18 13  1  0
  1 25  1  0
  1 26  1  0
  1 27  1  0
  3 28  1  0
  3 29  1  0
  3 30  1  0
  5 31  1  0
  6 32  1  0
  8 33  1  0
 12 34  1  0
 14 35  1  0
 15 36  1  0
 16 37  1  0
 17 38  1  0
 20 39  1  0
 21 40  1  0
 22 41  1  0
 23 42  1  0
M  END
>  <meeko>  (10) 
{"is_sidechain": false}

>  <vina_affinity_kcal_mol>  (10) 
-7.099

>  <pose_rank>  (10) 
10

$$$$
