
     RDKit          3D

 25 26  0  0  0  0  0  0  0  0999 V2000
  -11.9190    4.4460  -14.3790 C   0  0  0  0  0  0  0  0  0  0  0  0
  -10.8620    4.4850  -15.4410 C   0  0  0  0  0  0  0  0  0  0  0  0
   -9.8790    3.4320  -15.4400 C   0  0  0  0  0  0  0  0  0  0  0  0
   -8.9260    3.3990  -16.3750 C   0  0  0  0  0  0  0  0  0  0  0  0
   -8.8370    4.4520  -17.4260 C   0  0  0  0  0  0  0  0  0  0  0  0
   -7.8910    4.3630  -18.2070 O   0  0  0  0  0  0  0  0  0  0  0  0
   -9.8290    5.4610  -17.3890 N   0  0  0  0  0  0  0  0  0  0  0  0
   -9.8170    6.5200  -18.3790 C   0  0  0  0  0  0  0  0  0  0  0  0
   -9.4060    7.8250  -18.0670 C   0  0  0  0  0  0  0  0  0  0  0  0
   -9.3820    8.8360  -19.0350 C   0  0  0  0  0  0  0  0  0  0  0  0
   -9.7710    8.5620  -20.3420 C   0  0  0  0  0  0  0  0  0  0  0  0
  -10.1830    7.2790  -20.6790 C   0  0  0  0  0  0  0  0  0  0  0  0
  -10.2050    6.2700  -19.7100 C   0  0  0  0  0  0  0  0  0  0  0  0
  -10.8050    5.4350  -16.3870 C   0  0  0  0  0  0  0  0  0  0  0  0
  -11.4433    4.4636  -13.3874 H   0  0  0  0  0  0  0  0  0  0  0  0
  -12.5778    5.3204  -14.4851 H   0  0  0  0  0  0  0  0  0  0  0  0
  -12.5116    3.5254  -14.4851 H   0  0  0  0  0  0  0  0  0  0  0  0
   -9.9135    2.6516  -14.6656 H   0  0  0  0  0  0  0  0  0  0  0  0
   -8.1928    2.5790  -16.3693 H   0  0  0  0  0  0  0  0  0  0  0  0
   -9.0955    8.0589  -17.0380 H   0  0  0  0  0  0  0  0  0  0  0  0
   -9.0546    9.8498  -18.7613 H   0  0  0  0  0  0  0  0  0  0  0  0
   -9.7525    9.3557  -21.1034 H   0  0  0  0  0  0  0  0  0  0  0  0
  -10.4928    7.0556  -21.7106 H   0  0  0  0  0  0  0  0  0  0  0  0
  -10.5326    5.2590  -19.9938 H   0  0  0  0  0  0  0  0  0  0  0  0
  -11.5627    6.2323  -16.3740 H   0  0  0  0  0  0  0  0  0  0  0  0
  1  2  1  0
  2  3  1  0
  3  4  2  0
  4  5  1  0
  5  6  2  0
  5  7  1  0
  7  8  1  0
  8  9  2  0
  9 10  1  0
 10 11  2  0
 11 12  1  0
 12 13  2  0
  7 14  1  0
 14  2  2  0
 13  8  1  0
  1 15  1  0
  1 16  1  0
  1 17  1  0
  3 18  1  0
  4 19  1  0
  9 20  1  0
 10 21  1  0
 11 22  1  0
 12 23  1  0
 13 24  1  0
 14 25  1  0
M  END
>  <meeko>  (1) 
{"is_sidechain": false}

>  <vina_affinity_kcal_mol>  (1) 
-7.239

>  <pose_rank>  (1) 
1

$$$$

     RDKit          3D

 25 26  0  0  0  0  0  0  0  0999 V2000
  -13.7630    4.1110  -13.5740 C   0  0  0  0  0  0  0  0  0  0  0  0
  -12.4270    4.0680  -14.2510 C   0  0  0  0  0  0  0  0  0  0  0  0
  -11.5090    3.0340  -13.8490 C   0  0  0  0  0  0  0  0  0  0  0  0
  -10.3120    2.9290  -14.4320 C   0  0  0  0  0  0  0  0  0  0  0  0
   -9.8850    3.8840  -15.4940 C   0  0  0  0  0  0  0  0  0  0  0  0
   -8.7440    3.7390  -15.9290 O   0  0  0  0  0  0  0  0  0  0  0  0
  -10.8230    4.8780  -15.8590 N   0  0  0  0  0  0  0  0  0  0  0  0
  -10.4870    5.8430  -16.8890 C   0  0  0  0  0  0  0  0  0  0  0  0
   -9.8960    7.0790  -16.5840 C   0  0  0  0  0  0  0  0  0  0  0  0
   -9.5600    7.9960  -17.5870 C   0  0  0  0  0  0  0  0  0  0  0  0
   -9.8090    7.6950  -18.9220 C   0  0  0  0  0  0  0  0  0  0  0  0
  -10.3940    6.4800  -19.2520 C   0  0  0  0  0  0  0  0  0  0  0  0
  -10.7290    5.5640  -18.2480 C   0  0  0  0  0  0  0  0  0  0  0  0
  -12.0630    4.9300  -15.2150 C   0  0  0  0  0  0  0  0  0  0  0  0
  -13.6216    4.1064  -12.4831 H   0  0  0  0  0  0  0  0  0  0  0  0
  -14.2952    5.0267  -13.8709 H   0  0  0  0  0  0  0  0  0  0  0  0
  -14.3530    3.2314  -13.8709 H   0  0  0  0  0  0  0  0  0  0  0  0
  -11.7953    2.3264  -13.0570 H   0  0  0  0  0  0  0  0  0  0  0  0
   -9.6293    2.1237  -14.1231 H   0  0  0  0  0  0  0  0  0  0  0  0
   -9.6923    7.3328  -15.5333 H   0  0  0  0  0  0  0  0  0  0  0  0
   -9.0977    8.9574  -17.3186 H   0  0  0  0  0  0  0  0  0  0  0  0
   -9.5443    8.4146  -19.7107 H   0  0  0  0  0  0  0  0  0  0  0  0
  -10.5949    6.2364  -20.3057 H   0  0  0  0  0  0  0  0  0  0  0  0
  -11.1913    4.6055  -18.5265 H   0  0  0  0  0  0  0  0  0  0  0  0
  -12.7747    5.7144  -15.5119 H   0  0  0  0  0  0  0  0  0  0  0  0
  1  2  1  0
  2  3  1  0
  3  4  2  0
  4  5  1  0
  5  6  2  0
  5  7  1  0
  7  8  1  0
  8  9  2  0
  9 10  1  0
 10 11  2  0
 11 12  1  0
 12 13  2  0
  7 14  1  0
 14  2  2  0
 13  8  1  0
  1 15  1  0
  1 16  1  0
  1 17  1  0
  3 18  1  0
  4 19  1  0
  9 20  1  0
 10 21  1  0
 11 22  1  0
 12 23  1  0
 13 24  1  0
 14 25  1  0
M  END
>  <meeko>  (2) 
{"is_sidechain": false}

>  <vina_affinity_kcal_mol>  (2) 
-7.231

>  <pose_rank>  (2) 
2

$$$$

     RDKit          3D

 25 26  0  0  0  0  0  0  0  0999 V2000
   -7.4200    2.5810  -16.6100 C   0  0  0  0  0  0  0  0  0  0  0  0
   -8.5510    3.5640  -16.6160 C   0  0  0  0  0  0  0  0  0  0  0  0
   -9.5710    3.4140  -15.6100 C   0  0  0  0  0  0  0  0  0  0  0  0
  -10.5920    4.2730  -15.5500 C   0  0  0  0  0  0  0  0  0  0  0  0
  -10.7170    5.3920  -16.5270 C   0  0  0  0  0  0  0  0  0  0  0  0
  -11.7210    6.0950  -16.4220 O   0  0  0  0  0  0  0  0  0  0  0  0
   -9.6880    5.5020  -17.4910 N   0  0  0  0  0  0  0  0  0  0  0  0
   -9.7330    6.5670  -18.4740 C   0  0  0  0  0  0  0  0  0  0  0  0
   -9.3420    7.8790  -18.1660 C   0  0  0  0  0  0  0  0  0  0  0  0
   -9.3730    8.8970  -19.1280 C   0  0  0  0  0  0  0  0  0  0  0  0
   -9.7980    8.6220  -20.4230 C   0  0  0  0  0  0  0  0  0  0  0  0
  -10.1920    7.3320  -20.7560 C   0  0  0  0  0  0  0  0  0  0  0  0
  -10.1590    6.3170  -19.7930 C   0  0  0  0  0  0  0  0  0  0  0  0
   -8.6420    4.5740  -17.4970 C   0  0  0  0  0  0  0  0  0  0  0  0
   -7.1464    2.3432  -15.5714 H   0  0  0  0  0  0  0  0  0  0  0  0
   -7.7309    1.6612  -17.1271 H   0  0  0  0  0  0  0  0  0  0  0  0
   -6.5525    3.0170  -17.1271 H   0  0  0  0  0  0  0  0  0  0  0  0
   -9.5087    2.5873  -14.8871 H   0  0  0  0  0  0  0  0  0  0  0  0
  -11.3540    4.1526  -14.7659 H   0  0  0  0  0  0  0  0  0  0  0  0
   -9.0034    8.1135  -17.1460 H   0  0  0  0  0  0  0  0  0  0  0  0
   -9.0603    9.9165  -18.8581 H   0  0  0  0  0  0  0  0  0  0  0  0
   -9.8221    9.4207  -21.1790 H   0  0  0  0  0  0  0  0  0  0  0  0
  -10.5305    7.1080  -21.7784 H   0  0  0  0  0  0  0  0  0  0  0  0
  -10.4730    5.3005  -20.0727 H   0  0  0  0  0  0  0  0  0  0  0  0
   -7.8560    4.6759  -18.2597 H   0  0  0  0  0  0  0  0  0  0  0  0
  1  2  1  0
  2  3  1  0
  3  4  2  0
  4  5  1  0
  5  6  2  0
  5  7  1  0
  7  8  1  0
  8  9  2  0
  9 10  1  0
 10 11  2  0
 11 12  1  0
 12 13  2  0
  7 14  1  0
 14  2  2  0
 13  8  1  0
  1 15  1  0
  1 16  1  0
  1 17  1  0
  3 18  1  0
  4 19  1  0
  9 20  1  0
 10 21  1  0
 11 22  1  0
 12 23  1  0
 13 24  1  0
 14 25  1  0
M  END
>  <meeko>  (3) 
{"is_sidechain": false}

>  <vina_affinity_kcal_mol>  (3) 
-6.893

>  <pose_rank>  (3) 
3

$$$$

     RDKit          3D

 25 26  0  0  0  0  0  0  0  0999 V2000
   -8.1950    2.3370  -14.4670 C   0  0  0  0  0  0  0  0  0  0  0  0
   -9.3240    3.2430  -14.8560 C   0  0  0  0  0  0  0  0  0  0  0  0
  -10.5510    3.1350  -14.1110 C   0  0  0  0  0  0  0  0  0  0  0  0
  -11.5850    3.9320  -14.3940 C   0  0  0  0  0  0  0  0  0  0  0  0
  -11.5080    4.9340  -15.4950 C   0  0  0  0  0  0  0  0  0  0  0  0
  -12.5310    5.5810  -15.7140 O   0  0  0  0  0  0  0  0  0  0  0  0
  -10.2800    5.0070  -16.1930 N   0  0  0  0  0  0  0  0  0  0  0  0
  -10.1210    5.9610  -17.2740 C   0  0  0  0  0  0  0  0  0  0  0  0
  -10.5090    5.6640  -18.5890 C   0  0  0  0  0  0  0  0  0  0  0  0
  -10.3670    6.5980  -19.6220 C   0  0  0  0  0  0  0  0  0  0  0  0
   -9.8310    7.8540  -19.3610 C   0  0  0  0  0  0  0  0  0  0  0  0
   -9.4380    8.1750  -18.0680 C   0  0  0  0  0  0  0  0  0  0  0  0
   -9.5810    7.2400  -17.0360 C   0  0  0  0  0  0  0  0  0  0  0  0
   -9.2320    4.1490  -15.8420 C   0  0  0  0  0  0  0  0  0  0  0  0
   -8.1287    2.2838  -13.3703 H   0  0  0  0  0  0  0  0  0  0  0  0
   -8.3760    1.3307  -14.8726 H   0  0  0  0  0  0  0  0  0  0  0  0
   -7.2517    2.7316  -14.8726 H   0  0  0  0  0  0  0  0  0  0  0  0
  -10.6376    2.3922  -13.3043 H   0  0  0  0  0  0  0  0  0  0  0  0
  -12.5096    3.8474  -13.8042 H   0  0  0  0  0  0  0  0  0  0  0  0
  -10.9345    4.6748  -18.8135 H   0  0  0  0  0  0  0  0  0  0  0  0
  -10.6805    6.3373  -20.6436 H   0  0  0  0  0  0  0  0  0  0  0  0
   -9.7190    8.5881  -20.1725 H   0  0  0  0  0  0  0  0  0  0  0  0
   -9.0131    9.1669  -17.8543 H   0  0  0  0  0  0  0  0  0  0  0  0
   -9.2649    7.5099  -16.0175 H   0  0  0  0  0  0  0  0  0  0  0  0
   -8.2873    4.2204  -16.4010 H   0  0  0  0  0  0  0  0  0  0  0  0
  1  2  1  0
  2  3  1  0
  3  4  2  0
  4  5  1  0
  5  6  2  0
  5  7  1  0
  7  8  1  0
  8  9  2  0
  9 10  1  0
 10 11  2  0
 11 12  1  0
 12 13  2  0
  7 14  1  0
 14  2  2  0
 13  8  1  0
  1 15  1  0
  1 16  1  0
  1 17  1  0
  3 18  1  0
  4 19  1  0
  9 20  1  0
 10 21  1  0
 11 22  1  0
 12 23  1  0
 13 24  1  0
 14 25  1  0
M  END
>  <meeko>  (4) 
{"is_sidechain": false}

>  <vina_affinity_kcal_mol>  (4) 
-6.674

>  <pose_rank>  (4) 
4

$$$$

     RDKit          3D

 25 26  0  0  0  0  0  0  0  0999 V2000
  -11.5150    0.8280  -11.3100 C   0  0  0  0  0  0  0  0  0  0  0  0
  -12.1000    1.8490  -12.2390 C   0  0  0  0  0  0  0  0  0  0  0  0
  -13.4870    2.1920  -12.0620 C   0  0  0  0  0  0  0  0  0  0  0  0
  -14.0600    3.1120  -12.8440 C   0  0  0  0  0  0  0  0  0  0  0  0
  -13.2930    3.7900  -13.9260 C   0  0  0  0  0  0  0  0  0  0  0  0
  -13.9230    4.5810  -14.6270 O   0  0  0  0  0  0  0  0  0  0  0  0
  -11.9320    3.4250  -14.0560 N   0  0  0  0  0  0  0  0  0  0  0  0
  -11.1140    4.0430  -15.0820 C   0  0  0  0  0  0  0  0  0  0  0  0
  -11.4010    5.3180  -15.5920 C   0  0  0  0  0  0  0  0  0  0  0  0
  -10.5950    5.9130  -16.5700 C   0  0  0  0  0  0  0  0  0  0  0  0
   -9.4800    5.2420  -17.0610 C   0  0  0  0  0  0  0  0  0  0  0  0
   -9.1720    3.9780  -16.5740 C   0  0  0  0  0  0  0  0  0  0  0  0
   -9.9790    3.3850  -15.5960 C   0  0  0  0  0  0  0  0  0  0  0  0
  -11.3910    2.4590  -13.2010 C   0  0  0  0  0  0  0  0  0  0  0  0
  -11.6914    1.1359  -10.2688 H   0  0  0  0  0  0  0  0  0  0  0  0
  -11.9915   -0.1470  -11.4898 H   0  0  0  0  0  0  0  0  0  0  0  0
  -10.4329    0.7460  -11.4898 H   0  0  0  0  0  0  0  0  0  0  0  0
  -14.0782    1.6943  -11.2791 H   0  0  0  0  0  0  0  0  0  0  0  0
  -15.1168    3.3731  -12.6858 H   0  0  0  0  0  0  0  0  0  0  0  0
  -12.2792    5.8626  -15.2149 H   0  0  0  0  0  0  0  0  0  0  0  0
  -10.8443    6.9142  -16.9513 H   0  0  0  0  0  0  0  0  0  0  0  0
   -8.8465    5.7090  -17.8295 H   0  0  0  0  0  0  0  0  0  0  0  0
   -8.2917    3.4417  -16.9579 H   0  0  0  0  0  0  0  0  0  0  0  0
   -9.7215    2.3836  -15.2206 H   0  0  0  0  0  0  0  0  0  0  0  0
  -10.3324    2.1861  -13.3234 H   0  0  0  0  0  0  0  0  0  0  0  0
  1  2  1  0
  2  3  1  0
  3  4  2  0
  4  5  1  0
  5  6  2  0
  5  7  1  0
  7  8  1  0
  8  9  2  0
  9 10  1  0
 10 11  2  0
 11 12  1  0
 12 13  2  0
  7 14  1  0
 14  2  2  0
 13  8  1  0
  1 15  1  0
  1 16  1  0
  1 17  1  0
  3 18  1  0
  4 19  1  0
  9 20  1  0
 10 21  1  0
 11 22  1  0
 12 23  1  0
 13 24  1  0
 14 25  1  0
M  END
>  <meeko>  (5) 
{"is_sidechain": false}

>  <vina_affinity_kcal_mol>  (5) 
-6.525

>  <pose_rank>  (5) 
5

$$$$

     RDKit          3D

 25 26  0  0  0  0  0  0  0  0999 V2000
  -13.6220    1.8040  -11.6710 C   0  0  0  0  0  0  0  0  0  0  0  0
  -12.9940    2.6710  -12.7200 C   0  0  0  0  0  0  0  0  0  0  0  0
  -13.8000    3.7210  -13.2870 C   0  0  0  0  0  0  0  0  0  0  0  0
  -13.2890    4.5410  -14.2090 C   0  0  0  0  0  0  0  0  0  0  0  0
  -11.8870    4.3840  -14.6900 C   0  0  0  0  0  0  0  0  0  0  0  0
  -11.5280    5.1530  -15.5800 O   0  0  0  0  0  0  0  0  0  0  0  0
  -11.1330    3.3430  -14.0980 N   0  0  0  0  0  0  0  0  0  0  0  0
   -9.7580    3.1270  -14.5060 C   0  0  0  0  0  0  0  0  0  0  0  0
   -8.7140    3.0240  -13.5740 C   0  0  0  0  0  0  0  0  0  0  0  0
   -7.3930    2.7970  -13.9790 C   0  0  0  0  0  0  0  0  0  0  0  0
   -7.0860    2.6700  -15.3290 C   0  0  0  0  0  0  0  0  0  0  0  0
   -8.1000    2.7690  -16.2740 C   0  0  0  0  0  0  0  0  0  0  0  0
   -9.4200    2.9950  -15.8670 C   0  0  0  0  0  0  0  0  0  0  0  0
  -11.7250    2.5230  -13.1320 C   0  0  0  0  0  0  0  0  0  0  0  0
  -13.3498    2.1797  -10.6736 H   0  0  0  0  0  0  0  0  0  0  0  0
  -14.7159    1.8248  -11.7848 H   0  0  0  0  0  0  0  0  0  0  0  0
  -13.2611    0.7711  -11.7848 H   0  0  0  0  0  0  0  0  0  0  0  0
  -14.8422    3.8484  -12.9589 H   0  0  0  0  0  0  0  0  0  0  0  0
  -13.9142    5.3469  -14.6209 H   0  0  0  0  0  0  0  0  0  0  0  0
   -8.9383    3.1238  -12.5017 H   0  0  0  0  0  0  0  0  0  0  0  0
   -6.5949    2.7188  -13.2260 H   0  0  0  0  0  0  0  0  0  0  0  0
   -6.0480    2.4924  -15.6468 H   0  0  0  0  0  0  0  0  0  0  0  0
   -7.8648    2.6696  -17.3440 H   0  0  0  0  0  0  0  0  0  0  0  0
  -10.2113    3.0713  -16.6272 H   0  0  0  0  0  0  0  0  0  0  0  0
  -11.1214    1.7176  -12.6882 H   0  0  0  0  0  0  0  0  0  0  0  0
  1  2  1  0
  2  3  1  0
  3  4  2  0
  4  5  1  0
  5  6  2  0
  5  7  1  0
  7  8  1  0
  8  9  2  0
  9 10  1  0
 10 11  2  0
 11 12  1  0
 12 13  2  0
  7 14  1  0
 14  2  2  0
 13  8  1  0
  1 15  1  0
  1 16  1  0
  1 17  1  0
  3 18  1  0
  4 19  1  0
  9 20  1  0
 10 21  1  0
 11 22  1  0
 12 23  1  0
 13 24  1  0
 14 25  1  0
M  END
>  <meeko>  (6) 
{"is_sidechain": false}

>  <vina_affinity_kcal_mol>  (6) 
-6.476

>  <pose_rank>  (6) 
6

$$$$

     RDKit          3D

 25 26  0  0  0  0  0  0  0  0999 V2000
   -9.6380    7.6700  -17.4310 C   0  0  0  0  0  0  0  0  0  0  0  0
   -9.6230    6.2420  -16.9760 C   0  0  0  0  0  0  0  0  0  0  0  0
   -8.5950    5.3850  -17.5060 C   0  0  0  0  0  0  0  0  0  0  0  0
   -8.5150    4.1080  -17.1210 C   0  0  0  0  0  0  0  0  0  0  0  0
   -9.4930    3.5310  -16.1550 C   0  0  0  0  0  0  0  0  0  0  0  0
   -9.3690    2.3330  -15.9060 O   0  0  0  0  0  0  0  0  0  0  0  0
  -10.4800    4.4140  -15.6570 N   0  0  0  0  0  0  0  0  0  0  0  0
  -11.4650    3.9320  -14.7080 C   0  0  0  0  0  0  0  0  0  0  0  0
  -11.1600    2.9470  -13.7560 C   0  0  0  0  0  0  0  0  0  0  0  0
  -12.1140    2.5010  -12.8340 C   0  0  0  0  0  0  0  0  0  0  0  0
  -13.3990    3.0330  -12.8440 C   0  0  0  0  0  0  0  0  0  0  0  0
  -13.7290    4.0090  -13.7760 C   0  0  0  0  0  0  0  0  0  0  0  0
  -12.7730    4.4540  -14.6970 C   0  0  0  0  0  0  0  0  0  0  0  0
  -10.5050    5.7420  -16.0950 C   0  0  0  0  0  0  0  0  0  0  0  0
   -9.6450    8.3342  -16.5542 H   0  0  0  0  0  0  0  0  0  0  0  0
   -8.7419    7.8714  -18.0364 H   0  0  0  0  0  0  0  0  0  0  0  0
  -10.5381    7.8525  -18.0364 H   0  0  0  0  0  0  0  0  0  0  0  0
   -7.8712    5.7837  -18.2321 H   0  0  0  0  0  0  0  0  0  0  0  0
   -7.7135    3.4713  -17.5238 H   0  0  0  0  0  0  0  0  0  0  0  0
  -10.1483    2.5157  -13.7339 H   0  0  0  0  0  0  0  0  0  0  0  0
  -11.8466    1.7273  -12.0992 H   0  0  0  0  0  0  0  0  0  0  0  0
  -14.1488    2.6834  -12.1190 H   0  0  0  0  0  0  0  0  0  0  0  0
  -14.7438    4.4332  -13.7904 H   0  0  0  0  0  0  0  0  0  0  0  0
  -13.0495    5.2282  -15.4279 H   0  0  0  0  0  0  0  0  0  0  0  0
  -11.2847    6.4092  -15.6988 H   0  0  0  0  0  0  0  0  0  0  0  0
  1  2  1  0
  2  3  1  0
  3  4  2  0
  4  5  1  0
  5  6  2  0
  5  7  1  0
  7  8  1  0
  8  9  2  0
  9 10  1  0
 10 11  2  0
 11 12  1  0
 12 13  2  0
  7 14  1  0
 14  2  2  0
 13  8  1  0
  1 15  1  0
  1 16  1  0
  1 17  1  0
  3 18  1  0
  4 19  1  0
  9 20  1  0
 10 21  1  0
 11 22  1  0
 12 23  1  0
 13 24  1  0
 14 25  1  0
M  END
>  <meeko>  (7) 
{"is_sidechain": false}

>  <vina_affinity_kcal_mol>  (7) 
-6.439

>  <pose_rank>  (7) 
7

$$$$

     RDKit          3D

 25 26  0  0  0  0  0  0  0  0999 V2000
   -9.9310    7.9960  -19.2810 C   0  0  0  0  0  0  0  0  0  0  0  0
   -9.4470    6.7420  -18.6200 C   0  0  0  0  0  0  0  0  0  0  0  0
   -8.2660    6.1180  -19.1580 C   0  0  0  0  0  0  0  0  0  0  0  0
   -7.7730    5.0100  -18.5970 C   0  0  0  0  0  0  0  0  0  0  0  0
   -8.4360    4.3800  -17.4200 C   0  0  0  0  0  0  0  0  0  0  0  0
   -7.9370    3.3320  -17.0120 O   0  0  0  0  0  0  0  0  0  0  0  0
   -9.5890    5.0330  -16.9240 N   0  0  0  0  0  0  0  0  0  0  0  0
  -10.2890    4.4870  -15.7780 C   0  0  0  0  0  0  0  0  0  0  0  0
   -9.7600    3.4330  -15.0170 C   0  0  0  0  0  0  0  0  0  0  0  0
  -10.4370    2.9250  -13.9020 C   0  0  0  0  0  0  0  0  0  0  0  0
  -11.6630    3.4610  -13.5230 C   0  0  0  0  0  0  0  0  0  0  0  0
  -12.2110    4.5040  -14.2590 C   0  0  0  0  0  0  0  0  0  0  0  0
  -11.5320    5.0110  -15.3730 C   0  0  0  0  0  0  0  0  0  0  0  0
  -10.0500    6.1940  -17.5530 C   0  0  0  0  0  0  0  0  0  0  0  0
  -10.2143    8.7299  -18.5122 H   0  0  0  0  0  0  0  0  0  0  0  0
   -9.1292    8.4129  -19.9081 H   0  0  0  0  0  0  0  0  0  0  0  0
  -10.8050    7.7661  -19.9081 H   0  0  0  0  0  0  0  0  0  0  0  0
   -7.7672    6.5557  -20.0353 H   0  0  0  0  0  0  0  0  0  0  0  0
   -6.8614    4.5546  -19.0112 H   0  0  0  0  0  0  0  0  0  0  0  0
   -8.7918    2.9964  -15.3031 H   0  0  0  0  0  0  0  0  0  0  0  0
   -9.9977    2.0989  -13.3236 H   0  0  0  0  0  0  0  0  0  0  0  0
  -12.1950    3.0620  -12.6468 H   0  0  0  0  0  0  0  0  0  0  0  0
  -13.1807    4.9324  -13.9656 H   0  0  0  0  0  0  0  0  0  0  0  0
  -11.9792    5.8373  -15.9450 H   0  0  0  0  0  0  0  0  0  0  0  0
  -10.9512    6.6823  -17.1537 H   0  0  0  0  0  0  0  0  0  0  0  0
  1  2  1  0
  2  3  1  0
  3  4  2  0
  4  5  1  0
  5  6  2  0
  5  7  1  0
  7  8  1  0
  8  9  2  0
  9 10  1  0
 10 11  2  0
 11 12  1  0
 12 13  2  0
  7 14  1  0
 14  2  2  0
 13  8  1  0
  1 15  1  0
  1 16  1  0
  1 17  1  0
  3 18  1  0
  4 19  1  0
  9 20  1  0
 10 21  1  0
 11 22  1  0
 12 23  1  0
 13 24  1  0
 14 25  1  0
M  END
>  <meeko>  (8) 
{"is_sidechain": false}

>  <vina_affinity_kcal_mol>  (8) 
-6.265

>  <pose_rank>  (8) 
8

$$$$

     RDKit          3D

 25 26  0  0  0  0  0  0  0  0999 V2000
   -7.5520    2.1750  -17.0980 C   0  0  0  0  0  0  0  0  0  0  0  0
   -8.6220    3.1460  -16.7010 C   0  0  0  0  0  0  0  0  0  0  0  0
   -8.6470    4.4200  -17.3710 C   0  0  0  0  0  0  0  0  0  0  0  0
   -9.5910    5.3190  -17.0780 C   0  0  0  0  0  0  0  0  0  0  0  0
  -10.6250    5.0410  -16.0420 C   0  0  0  0  0  0  0  0  0  0  0  0
  -11.4160    5.9530  -15.8050 O   0  0  0  0  0  0  0  0  0  0  0  0
  -10.5630    3.7730  -15.4160 N   0  0  0  0  0  0  0  0  0  0  0  0
  -11.5380    3.4220  -14.4010 C   0  0  0  0  0  0  0  0  0  0  0  0
  -12.8090    4.0140  -14.3550 C   0  0  0  0  0  0  0  0  0  0  0  0
  -13.7490    3.6550  -13.3810 C   0  0  0  0  0  0  0  0  0  0  0  0
  -13.4350    2.6930  -12.4270 C   0  0  0  0  0  0  0  0  0  0  0  0
  -12.1830    2.0910  -12.4480 C   0  0  0  0  0  0  0  0  0  0  0  0
  -11.2460    2.4510  -13.4240 C   0  0  0  0  0  0  0  0  0  0  0  0
   -9.5540    2.8740  -15.7740 C   0  0  0  0  0  0  0  0  0  0  0  0
   -7.0867    1.7528  -16.1951 H   0  0  0  0  0  0  0  0  0  0  0  0
   -7.9955    1.3646  -17.6952 H   0  0  0  0  0  0  0  0  0  0  0  0
   -6.7883    2.6948  -17.6952 H   0  0  0  0  0  0  0  0  0  0  0  0
   -7.8846    4.6546  -18.1284 H   0  0  0  0  0  0  0  0  0  0  0  0
   -9.6050    6.2812  -17.6110 H   0  0  0  0  0  0  0  0  0  0  0  0
  -13.0733    4.7778  -15.1012 H   0  0  0  0  0  0  0  0  0  0  0  0
  -14.7386    4.1353  -13.3705 H   0  0  0  0  0  0  0  0  0  0  0  0
  -14.1726    2.4108  -11.6613 H   0  0  0  0  0  0  0  0  0  0  0  0
  -11.9274    1.3298  -11.6961 H   0  0  0  0  0  0  0  0  0  0  0  0
  -10.2595    1.9643  -13.4277 H   0  0  0  0  0  0  0  0  0  0  0  0
   -9.5223    1.8960  -15.2715 H   0  0  0  0  0  0  0  0  0  0  0  0
  1  2  1  0
  2  3  1  0
  3  4  2  0
  4  5  1  0
  5  6  2  0
  5  7  1  0
  7  8  1  0
  8  9  2  0
  9 10  1  0
 10 11  2  0
 11 12  1  0
 12 13  2  0
  7 14  1  0
 14  2  2  0
 13  8  1  0
  1 15  1  0
  1 16  1  0
  1 17  1  0
  3 18  1  0
  4 19  1  0
  9 20  1  0
 10 21  1  0
 11 22  1  0
 12 23  1  0
 13 24  1  0
 14 25  1  0
M  END
>  <meeko>  (9) 
{"is_sidechain": false}

>  <vina_affinity_kcal_mol>  (9) 
-6.14

>  <pose_rank>  (9) 
9

$$$$

     RDKit          3D

 25 26  0  0  0  0  0  0  0  0999 V2000
   -5.9850    2.9800  -14.3150 C   0  0  0  0  0  0  0  0  0  0  0  0
   -7.2190    2.1290  -14.3040 C   0  0  0  0  0  0  0  0  0  0  0  0
   -7.0560    0.7180  -14.5400 C   0  0  0  0  0  0  0  0  0  0  0  0
   -8.1150   -0.0960  -14.5190 C   0  0  0  0  0  0  0  0  0  0  0  0
   -9.4880    0.4290  -14.2760 C   0  0  0  0  0  0  0  0  0  0  0  0
  -10.4030   -0.3910  -14.3320 O   0  0  0  0  0  0  0  0  0  0  0  0
   -9.5960    1.8210  -14.0440 N   0  0  0  0  0  0  0  0  0  0  0  0
  -10.8970    2.4110  -13.7930 C   0  0  0  0  0  0  0  0  0  0  0  0
  -11.7720    1.8960  -12.8240 C   0  0  0  0  0  0  0  0  0  0  0  0
  -13.0180    2.4840  -12.5770 C   0  0  0  0  0  0  0  0  0  0  0  0
  -13.4180    3.6040  -13.2990 C   0  0  0  0  0  0  0  0  0  0  0  0
  -12.5730    4.1340  -14.2640 C   0  0  0  0  0  0  0  0  0  0  0  0
  -11.3260    3.5450  -14.5080 C   0  0  0  0  0  0  0  0  0  0  0  0
   -8.4470    2.6180  -14.0710 C   0  0  0  0  0  0  0  0  0  0  0  0
   -5.6769    3.1925  -13.2806 H   0  0  0  0  0  0  0  0  0  0  0  0
   -5.1764    2.4466  -14.8362 H   0  0  0  0  0  0  0  0  0  0  0  0
   -6.1962    3.9254  -14.8362 H   0  0  0  0  0  0  0  0  0  0  0  0
   -6.0546    0.3083  -14.7385 H   0  0  0  0  0  0  0  0  0  0  0  0
   -7.9707   -1.1739  -14.6842 H   0  0  0  0  0  0  0  0  0  0  0  0
  -11.4717    1.0100  -12.2454 H   0  0  0  0  0  0  0  0  0  0  0  0
  -13.6826    2.0595  -11.8101 H   0  0  0  0  0  0  0  0  0  0  0  0
  -14.3974    4.0663  -13.1063 H   0  0  0  0  0  0  0  0  0  0  0  0
  -12.8835    5.0190  -14.8387 H   0  0  0  0  0  0  0  0  0  0  0  0
  -10.6674    3.9781  -15.2752 H   0  0  0  0  0  0  0  0  0  0  0  0
   -8.5550    3.6981  -13.8926 H   0  0  0  0  0  0  0  0  0  0  0  0
  1  2  1  0
  2  3  1  0
  3  4  2  0
  4  5  1  0
  5  6  2  0
  5  7  1  0
  7  8  1  0
  8  9  2  0
  9 10  1  0
 10 11  2  0
 11 12  1  0
 12 13  2  0
  7 14  1  0
 14  2  2  0
 13  8  1  0
  1 15  1  0
  1 16  1  0
  1 17  1  0
  3 18  1  0
  4 19  1  0
  9 20  1  0
 10 21  1  0
 11 22  1  0
 12 23  1  0
 13 24  1  0
 14 25  1  0
M  END
>  <meeko>  (10) 
{"is_sidechain": false}

>  <vina_affinity_kcal_mol>  (10) 
-6.119

>  <pose_rank>  (10) 
10

$$$$
