
     RDKit          3D

 54 57  0  0  0  0  0  0  0  0999 V2000
  -33.7640  156.8020    5.7880 C   0  0  0  0  0  0  0  0  0  0  0  0
  -35.1160  156.8900    5.1370 C   0  0  0  0  0  0  0  0  0  0  0  0
  -35.5580  158.1300    4.6580 C   0  0  0  0  0  0  0  0  0  0  0  0
  -36.8120  158.2620    4.0490 C   0  0  0  0  0  0  0  0  0  0  0  0
  -37.6680  157.1710    3.8960 C   0  0  0  0  0  0  0  0  0  0  0  0
  -38.9330  157.2470    3.3060 N   0  0  0  0  0  0  0  0  0  0  0  0
  -39.4780  157.9930    2.2660 C   0  0  0  0  0  0  0  0  0  0  0  0
  -40.6290  158.6100    2.5690 N   0  0  0  0  0  0  0  0  0  0  0  0
  -41.1930  159.3530    1.6040 C   0  0  0  0  0  0  0  0  0  0  0  0
  -40.6550  159.4940    0.3500 C   0  0  0  0  0  0  0  0  0  0  0  0
  -39.4740  158.8210    0.1010 C   0  0  0  0  0  0  0  0  0  0  0  0
  -38.8640  158.9540   -1.1780 N   0  0  0  0  0  0  0  0  0  0  0  0
  -39.0470  157.7750   -2.0340 C   0  0  0  0  0  0  0  0  0  0  0  0
  -38.8480  160.1590   -1.9520 C   0  0  0  0  0  0  0  0  0  0  0  0
  -39.1370  161.4250   -1.3260 C   0  0  0  0  0  0  0  0  0  0  0  0
  -39.1470  162.6680   -1.9960 C   0  0  0  0  0  0  0  0  0  0  0  0
  -38.8450  162.5150   -3.3440 C   0  0  0  0  0  0  0  0  0  0  0  0
  -38.7720  163.5230   -4.2760 C   0  0  0  0  0  0  0  0  0  0  0  0
  -38.9640  164.9910   -4.1930 C   0  0  0  0  0  0  0  0  0  0  0  0
  -38.4570  162.8710   -5.4450 N   0  0  0  0  0  0  0  0  0  0  0  0
  -38.2640  163.4720   -6.7460 C   0  0  0  0  0  0  0  0  0  0  0  0
  -38.3120  161.5360   -5.3210 N   0  0  0  0  0  0  0  0  0  0  0  0
  -38.5530  161.2800   -4.0250 C   0  0  0  0  0  0  0  0  0  0  0  0
  -38.5500  160.0570   -3.3350 C   0  0  0  0  0  0  0  0  0  0  0  0
  -38.8860  158.0850    1.0660 N   0  0  0  0  0  0  0  0  0  0  0  0
  -37.2320  155.9330    4.3900 C   0  0  0  0  0  0  0  0  0  0  0  0
  -35.9770  155.7890    5.0080 C   0  0  0  0  0  0  0  0  0  0  0  0
  -35.4970  154.2010    5.6360 S   0  0  0  0  0  0  0  0  0  0  0  0
  -36.6600  153.1290    5.0560 N   0  0  0  0  0  0  0  0  0  0  0  0
  -34.2630  153.8120    4.9960 O   0  0  0  0  0  0  0  0  0  0  0  0
  -35.6770  154.1870    7.0680 O   0  0  0  0  0  0  0  0  0  0  0  0
  -33.8824  156.8097    6.8816 H   0  0  0  0  0  0  0  0  0  0  0  0
  -33.2684  155.8697    5.4794 H   0  0  0  0  0  0  0  0  0  0  0  0
  -33.1518  157.6622    5.4794 H   0  0  0  0  0  0  0  0  0  0  0  0
  -34.9104  159.0131    4.7618 H   0  0  0  0  0  0  0  0  0  0  0  0
  -37.1297  159.2493    3.6825 H   0  0  0  0  0  0  0  0  0  0  0  0
  -39.6390  156.6070    3.6400 H   0  0  0  0  0  0  0  0  0  0  0  0
  -42.1343  159.8753    1.8301 H   0  0  0  0  0  0  0  0  0  0  0  0
  -41.1399  160.1125   -0.4196 H   0  0  0  0  0  0  0  0  0  0  0  0
  -39.1854  156.8832   -1.4051 H   0  0  0  0  0  0  0  0  0  0  0  0
  -39.9339  157.9171   -2.6691 H   0  0  0  0  0  0  0  0  0  0  0  0
  -38.1588  157.6415   -2.6691 H   0  0  0  0  0  0  0  0  0  0  0  0
  -39.3660  161.4226   -0.2501 H   0  0  0  0  0  0  0  0  0  0  0  0
  -39.3654  163.6322   -1.5137 H   0  0  0  0  0  0  0  0  0  0  0  0
  -39.0039  165.2964   -3.1370 H   0  0  0  0  0  0  0  0  0  0  0  0
  -38.1247  165.4993   -4.6902 H   0  0  0  0  0  0  0  0  0  0  0  0
  -39.9058  165.2663   -4.6902 H   0  0  0  0  0  0  0  0  0  0  0  0
  -37.9298  164.5128   -6.6232 H   0  0  0  0  0  0  0  0  0  0  0  0
  -37.5026  162.9056   -7.3022 H   0  0  0  0  0  0  0  0  0  0  0  0
  -39.2128  163.4548   -7.3022 H   0  0  0  0  0  0  0  0  0  0  0  0
  -38.3340  159.0973   -3.8273 H   0  0  0  0  0  0  0  0  0  0  0  0
  -37.8867  155.0545    4.2918 H   0  0  0  0  0  0  0  0  0  0  0  0
  -37.0860  153.5280    4.2170 H   0  0  0  0  0  0  0  0  0  0  0  0
  -37.3310  152.9330    5.7990 H   0  0  0  0  0  0  0  0  0  0  0  0
  1  2  1  0
  2  3  1  0
  3  4  2  0
  4  5  1  0
  5  6  1  0
  6  7  1  0
  7  8  2  0
  8  9  1  0
  9 10  2  0
 10 11  1  0
 11 12  1  0
 12 13  1  0
 12 14  1  0
 14 15  1  0
 15 16  2  0
 16 17  1  0
 17 18  2  0
 18 19  1  0
 18 20  1  0
 20 21  1  0
 20 22  1  0
 22 23  2  0
 23 24  1  0
 11 25  2  0
  5 26  2  0
 26 27  1  0
 27 28  1  0
 28 29  1  0
 28 30  2  0
 28 31  2  0
 27  2  2  0
 25  7  1  0
 24 14  2  0
 23 17  1  0
  1 32  1  0
  1 33  1  0
  1 34  1  0
  3 35  1  0
  4 36  1  0
  6 37  1  0
  9 38  1  0
 10 39  1  0
 13 40  1  0
 13 41  1  0
 13 42  1  0
 15 43  1  0
 16 44  1  0
 19 45  1  0
 19 46  1  0
 19 47  1  0
 21 48  1  0
 21 49  1  0
 21 50  1  0
 24 51  1  0
 26 52  1  0
 29 53  1  0
 29 54  1  0
M  END
>  <meeko>  (1) 
{"is_sidechain": false}

>  <vina_affinity_kcal_mol>  (1) 
-11.108

>  <pose_rank>  (1) 
1

$$$$

     RDKit          3D

 54 57  0  0  0  0  0  0  0  0999 V2000
  -37.1720  163.3700  -10.8690 C   0  0  0  0  0  0  0  0  0  0  0  0
  -37.5380  163.8030   -9.4770 C   0  0  0  0  0  0  0  0  0  0  0  0
  -37.8620  162.8270   -8.5260 C   0  0  0  0  0  0  0  0  0  0  0  0
  -38.2130  163.1820   -7.2180 C   0  0  0  0  0  0  0  0  0  0  0  0
  -38.2550  164.5160   -6.8110 C   0  0  0  0  0  0  0  0  0  0  0  0
  -38.6100  164.9280   -5.5230 N   0  0  0  0  0  0  0  0  0  0  0  0
  -38.7030  164.2920   -4.2880 C   0  0  0  0  0  0  0  0  0  0  0  0
  -38.4970  165.0940   -3.2340 N   0  0  0  0  0  0  0  0  0  0  0  0
  -38.5870  164.5330   -2.0180 C   0  0  0  0  0  0  0  0  0  0  0  0
  -38.8630  163.2050   -1.8190 C   0  0  0  0  0  0  0  0  0  0  0  0
  -39.0520  162.4330   -2.9500 C   0  0  0  0  0  0  0  0  0  0  0  0
  -39.3650  161.0530   -2.7950 N   0  0  0  0  0  0  0  0  0  0  0  0
  -38.6040  160.1810   -3.6980 C   0  0  0  0  0  0  0  0  0  0  0  0
  -39.6130  160.4100   -1.5410 C   0  0  0  0  0  0  0  0  0  0  0  0
  -40.9160  160.4950   -0.9290 C   0  0  0  0  0  0  0  0  0  0  0  0
  -41.2660  159.8980    0.3010 C   0  0  0  0  0  0  0  0  0  0  0  0
  -40.1890  159.2170    0.8550 C   0  0  0  0  0  0  0  0  0  0  0  0
  -40.1910  158.5280    2.0440 C   0  0  0  0  0  0  0  0  0  0  0  0
  -41.2360  158.2800    3.0660 C   0  0  0  0  0  0  0  0  0  0  0  0
  -38.9060  158.0480    2.1520 N   0  0  0  0  0  0  0  0  0  0  0  0
  -38.3680  157.2510    3.2320 C   0  0  0  0  0  0  0  0  0  0  0  0
  -38.1000  158.3680    1.1190 N   0  0  0  0  0  0  0  0  0  0  0  0
  -38.8650  159.1010    0.2950 C   0  0  0  0  0  0  0  0  0  0  0  0
  -38.5440  159.7040   -0.9300 C   0  0  0  0  0  0  0  0  0  0  0  0
  -38.9830  162.9860   -4.1780 N   0  0  0  0  0  0  0  0  0  0  0  0
  -37.9480  165.4950   -7.7670 C   0  0  0  0  0  0  0  0  0  0  0  0
  -37.5980  165.1490   -9.0840 C   0  0  0  0  0  0  0  0  0  0  0  0
  -37.2450  166.4370  -10.2530 S   0  0  0  0  0  0  0  0  0  0  0  0
  -37.2920  167.8650   -9.3610 N   0  0  0  0  0  0  0  0  0  0  0  0
  -35.8750  166.2980  -10.6840 O   0  0  0  0  0  0  0  0  0  0  0  0
  -38.3500  166.5520  -11.1740 O   0  0  0  0  0  0  0  0  0  0  0  0
  -36.4627  162.5308  -10.8174 H   0  0  0  0  0  0  0  0  0  0  0  0
  -38.0787  163.0513  -11.4042 H   0  0  0  0  0  0  0  0  0  0  0  0
  -36.7068  164.2109  -11.4042 H   0  0  0  0  0  0  0  0  0  0  0  0
  -37.8403  161.7649   -8.8113 H   0  0  0  0  0  0  0  0  0  0  0  0
  -38.4613  162.3913   -6.4947 H   0  0  0  0  0  0  0  0  0  0  0  0
  -38.8090  165.9090   -5.3890 H   0  0  0  0  0  0  0  0  0  0  0  0
  -38.4313  165.1715   -1.1359 H   0  0  0  0  0  0  0  0  0  0  0  0
  -38.9307  162.7748   -0.8089 H   0  0  0  0  0  0  0  0  0  0  0  0
  -37.9944  159.4825   -3.1059 H   0  0  0  0  0  0  0  0  0  0  0  0
  -39.3003  159.6130   -4.3324 H   0  0  0  0  0  0  0  0  0  0  0  0
  -37.9470  160.7941   -4.3324 H   0  0  0  0  0  0  0  0  0  0  0  0
  -41.6927  161.0660   -1.4588 H   0  0  0  0  0  0  0  0  0  0  0  0
  -42.2628  159.9634    0.7616 H   0  0  0  0  0  0  0  0  0  0  0  0
  -40.7989  158.3837    4.0701 H   0  0  0  0  0  0  0  0  0  0  0  0
  -42.0496  159.0100    2.9431 H   0  0  0  0  0  0  0  0  0  0  0  0
  -41.6349  157.2623    2.9431 H   0  0  0  0  0  0  0  0  0  0  0  0
  -38.6649  157.6909    4.1955 H   0  0  0  0  0  0  0  0  0  0  0  0
  -38.7593  156.2254    3.1610 H   0  0  0  0  0  0  0  0  0  0  0  0
  -37.2705  157.2304    3.1610 H   0  0  0  0  0  0  0  0  0  0  0  0
  -37.5432  159.6352   -1.3814 H   0  0  0  0  0  0  0  0  0  0  0  0
  -37.9818  166.5564   -7.4803 H   0  0  0  0  0  0  0  0  0  0  0  0
  -38.0960  167.8340   -8.7310 H   0  0  0  0  0  0  0  0  0  0  0  0
  -37.3070  168.6580  -10.0030 H   0  0  0  0  0  0  0  0  0  0  0  0
  1  2  1  0
  2  3  1  0
  3  4  2  0
  4  5  1  0
  5  6  1  0
  6  7  1  0
  7  8  2  0
  8  9  1  0
  9 10  2  0
 10 11  1  0
 11 12  1  0
 12 13  1  0
 12 14  1  0
 14 15  1  0
 15 16  2  0
 16 17  1  0
 17 18  2  0
 18 19  1  0
 18 20  1  0
 20 21  1  0
 20 22  1  0
 22 23  2  0
 23 24  1  0
 11 25  2  0
  5 26  2  0
 26 27  1  0
 27 28  1  0
 28 29  1  0
 28 30  2  0
 28 31  2  0
 27  2  2  0
 25  7  1  0
 24 14  2  0
 23 17  1  0
  1 32  1  0
  1 33  1  0
  1 34  1  0
  3 35  1  0
  4 36  1  0
  6 37  1  0
  9 38  1  0
 10 39  1  0
 13 40  1  0
 13 41  1  0
 13 42  1  0
 15 43  1  0
 16 44  1  0
 19 45  1  0
 19 46  1  0
 19 47  1  0
 21 48  1  0
 21 49  1  0
 21 50  1  0
 24 51  1  0
 26 52  1  0
 29 53  1  0
 29 54  1  0
M  END
>  <meeko>  (2) 
{"is_sidechain": false}

>  <vina_affinity_kcal_mol>  (2) 
-10.709

>  <pose_rank>  (2) 
2

$$$$

     RDKit          3D

 54 57  0  0  0  0  0  0  0  0999 V2000
  -36.2830  156.3720    7.2640 C   0  0  0  0  0  0  0  0  0  0  0  0
  -36.7120  156.7400    5.8710 C   0  0  0  0  0  0  0  0  0  0  0  0
  -36.7380  158.0920    5.5040 C   0  0  0  0  0  0  0  0  0  0  0  0
  -37.1360  158.4830    4.2200 C   0  0  0  0  0  0  0  0  0  0  0  0
  -37.5200  157.5490    3.2580 C   0  0  0  0  0  0  0  0  0  0  0  0
  -37.9360  157.8830    1.9670 N   0  0  0  0  0  0  0  0  0  0  0  0
  -38.9300  158.7080    1.4470 C   0  0  0  0  0  0  0  0  0  0  0  0
  -40.1800  158.3220    1.7380 N   0  0  0  0  0  0  0  0  0  0  0  0
  -41.1770  159.0890    1.2710 C   0  0  0  0  0  0  0  0  0  0  0  0
  -40.9720  160.2160    0.5190 C   0  0  0  0  0  0  0  0  0  0  0  0
  -39.6580  160.5510    0.2450 C   0  0  0  0  0  0  0  0  0  0  0  0
  -39.3920  161.7260   -0.5120 N   0  0  0  0  0  0  0  0  0  0  0  0
  -38.5510  162.6970    0.1990 C   0  0  0  0  0  0  0  0  0  0  0  0
  -39.1310  161.7470   -1.9190 C   0  0  0  0  0  0  0  0  0  0  0  0
  -38.9960  160.5110   -2.6490 C   0  0  0  0  0  0  0  0  0  0  0  0
  -38.7390  160.4200   -4.0340 C   0  0  0  0  0  0  0  0  0  0  0  0
  -38.6290  161.6810   -4.6090 C   0  0  0  0  0  0  0  0  0  0  0  0
  -38.3820  161.9470   -5.9350 C   0  0  0  0  0  0  0  0  0  0  0  0
  -38.1690  161.0770   -7.1170 C   0  0  0  0  0  0  0  0  0  0  0  0
  -38.3550  163.3210   -5.9980 N   0  0  0  0  0  0  0  0  0  0  0  0
  -38.1260  164.1290   -7.1750 C   0  0  0  0  0  0  0  0  0  0  0  0
  -38.5800  163.9400   -4.8210 N   0  0  0  0  0  0  0  0  0  0  0  0
  -38.7490  162.9480   -3.9330 C   0  0  0  0  0  0  0  0  0  0  0  0
  -39.0040  163.0100   -2.5540 C   0  0  0  0  0  0  0  0  0  0  0  0
  -38.6450  159.8000    0.7230 N   0  0  0  0  0  0  0  0  0  0  0  0
  -37.5110  156.1960    3.6300 C   0  0  0  0  0  0  0  0  0  0  0  0
  -37.1180  155.7920    4.9180 C   0  0  0  0  0  0  0  0  0  0  0  0
  -37.1540  154.0670    5.3330 S   0  0  0  0  0  0  0  0  0  0  0  0
  -37.9490  153.3230    4.0490 N   0  0  0  0  0  0  0  0  0  0  0  0
  -35.8030  153.5610    5.2930 O   0  0  0  0  0  0  0  0  0  0  0  0
  -38.0320  153.8720    6.4620 O   0  0  0  0  0  0  0  0  0  0  0  0
  -36.9078  156.9079    7.9937 H   0  0  0  0  0  0  0  0  0  0  0  0
  -36.3984  155.2877    7.4088 H   0  0  0  0  0  0  0  0  0  0  0  0
  -35.2289  156.6511    7.4088 H   0  0  0  0  0  0  0  0  0  0  0  0
  -36.4412  158.8577    6.2358 H   0  0  0  0  0  0  0  0  0  0  0  0
  -37.1461  159.5527    3.9637 H   0  0  0  0  0  0  0  0  0  0  0  0
  -37.4030  157.5070    1.1960 H   0  0  0  0  0  0  0  0  0  0  0  0
  -42.2120  158.7982    1.5038 H   0  0  0  0  0  0  0  0  0  0  0  0
  -41.8112  160.8246    0.1512 H   0  0  0  0  0  0  0  0  0  0  0  0
  -38.6698  162.5599    1.2839 H   0  0  0  0  0  0  0  0  0  0  0  0
  -37.4977  162.5413   -0.0771 H   0  0  0  0  0  0  0  0  0  0  0  0
  -38.8555  163.7173   -0.0771 H   0  0  0  0  0  0  0  0  0  0  0  0
  -39.1008  159.5716   -2.0863 H   0  0  0  0  0  0  0  0  0  0  0  0
  -38.6388  159.4742   -4.5866 H   0  0  0  0  0  0  0  0  0  0  0  0
  -37.9198  160.0590   -6.7829 H   0  0  0  0  0  0  0  0  0  0  0  0
  -39.0870  161.0497   -7.7224 H   0  0  0  0  0  0  0  0  0  0  0  0
  -37.3422  161.4769   -7.7224 H   0  0  0  0  0  0  0  0  0  0  0  0
  -37.8377  165.1461   -6.8711 H   0  0  0  0  0  0  0  0  0  0  0  0
  -37.3189  163.6829   -7.7747 H   0  0  0  0  0  0  0  0  0  0  0  0
  -39.0471  164.1727   -7.7747 H   0  0  0  0  0  0  0  0  0  0  0  0
  -39.0979  163.9610   -2.0093 H   0  0  0  0  0  0  0  0  0  0  0  0
  -37.8182  155.4347    2.8978 H   0  0  0  0  0  0  0  0  0  0  0  0
  -37.6380  153.7520    3.1750 H   0  0  0  0  0  0  0  0  0  0  0  0
  -38.9560  153.3880    4.1990 H   0  0  0  0  0  0  0  0  0  0  0  0
  1  2  1  0
  2  3  1  0
  3  4  2  0
  4  5  1  0
  5  6  1  0
  6  7  1  0
  7  8  2  0
  8  9  1  0
  9 10  2  0
 10 11  1  0
 11 12  1  0
 12 13  1  0
 12 14  1  0
 14 15  1  0
 15 16  2  0
 16 17  1  0
 17 18  2  0
 18 19  1  0
 18 20  1  0
 20 21  1  0
 20 22  1  0
 22 23  2  0
 23 24  1  0
 11 25  2  0
  5 26  2  0
 26 27  1  0
 27 28  1  0
 28 29  1  0
 28 30  2  0
 28 31  2  0
 27  2  2  0
 25  7  1  0
 24 14  2  0
 23 17  1  0
  1 32  1  0
  1 33  1  0
  1 34  1  0
  3 35  1  0
  4 36  1  0
  6 37  1  0
  9 38  1  0
 10 39  1  0
 13 40  1  0
 13 41  1  0
 13 42  1  0
 15 43  1  0
 16 44  1  0
 19 45  1  0
 19 46  1  0
 19 47  1  0
 21 48  1  0
 21 49  1  0
 21 50  1  0
 24 51  1  0
 26 52  1  0
 29 53  1  0
 29 54  1  0
M  END
>  <meeko>  (3) 
{"is_sidechain": false}

>  <vina_affinity_kcal_mol>  (3) 
-10.58

>  <pose_rank>  (3) 
3

$$$$

     RDKit          3D

 54 57  0  0  0  0  0  0  0  0999 V2000
  -35.6420  153.8270    5.7240 C   0  0  0  0  0  0  0  0  0  0  0  0
  -36.2850  155.0570    5.1480 C   0  0  0  0  0  0  0  0  0  0  0  0
  -37.6210  154.9930    4.7290 C   0  0  0  0  0  0  0  0  0  0  0  0
  -38.2600  156.1110    4.1810 C   0  0  0  0  0  0  0  0  0  0  0  0
  -37.5980  157.3290    4.0290 C   0  0  0  0  0  0  0  0  0  0  0  0
  -38.1820  158.4730    3.4790 N   0  0  0  0  0  0  0  0  0  0  0  0
  -38.9820  158.7180    2.3660 C   0  0  0  0  0  0  0  0  0  0  0  0
  -40.2790  158.9090    2.6460 N   0  0  0  0  0  0  0  0  0  0  0  0
  -41.0930  159.1610    1.6090 C   0  0  0  0  0  0  0  0  0  0  0  0
  -40.6620  159.2190    0.3090 C   0  0  0  0  0  0  0  0  0  0  0  0
  -39.3150  159.0010    0.0900 C   0  0  0  0  0  0  0  0  0  0  0  0
  -38.8140  159.0740   -1.2400 N   0  0  0  0  0  0  0  0  0  0  0  0
  -39.1370  157.8910   -2.0470 C   0  0  0  0  0  0  0  0  0  0  0  0
  -38.8000  160.2600   -2.0410 C   0  0  0  0  0  0  0  0  0  0  0  0
  -39.0690  161.5430   -1.4400 C   0  0  0  0  0  0  0  0  0  0  0  0
  -39.0790  162.7700   -2.1380 C   0  0  0  0  0  0  0  0  0  0  0  0
  -38.7990  162.5850   -3.4870 C   0  0  0  0  0  0  0  0  0  0  0  0
  -38.7320  163.5700   -4.4430 C   0  0  0  0  0  0  0  0  0  0  0  0
  -38.9100  165.0410   -4.3910 C   0  0  0  0  0  0  0  0  0  0  0  0
  -38.4410  162.8880   -5.6020 N   0  0  0  0  0  0  0  0  0  0  0  0
  -38.2630  163.4580   -6.9190 C   0  0  0  0  0  0  0  0  0  0  0  0
  -38.3050  161.5550   -5.4490 N   0  0  0  0  0  0  0  0  0  0  0  0
  -38.5280  161.3310   -4.1440 C   0  0  0  0  0  0  0  0  0  0  0  0
  -38.5240  160.1250   -3.4270 C   0  0  0  0  0  0  0  0  0  0  0  0
  -38.4810  158.7640    1.1240 N   0  0  0  0  0  0  0  0  0  0  0  0
  -36.2550  157.3900    4.4320 C   0  0  0  0  0  0  0  0  0  0  0  0
  -35.6020  156.2720    4.9800 C   0  0  0  0  0  0  0  0  0  0  0  0
  -33.8950  156.4090    5.4450 S   0  0  0  0  0  0  0  0  0  0  0  0
  -33.3810  157.8790    4.8050 N   0  0  0  0  0  0  0  0  0  0  0  0
  -33.8250  156.5680    6.8780 O   0  0  0  0  0  0  0  0  0  0  0  0
  -33.1300  155.4170    4.7280 O   0  0  0  0  0  0  0  0  0  0  0  0
  -35.6693  153.8792    6.8224 H   0  0  0  0  0  0  0  0  0  0  0  0
  -36.1890  152.9346    5.3856 H   0  0  0  0  0  0  0  0  0  0  0  0
  -34.5971  153.7668    5.3856 H   0  0  0  0  0  0  0  0  0  0  0  0
  -38.1761  154.0490    4.8325 H   0  0  0  0  0  0  0  0  0  0  0  0
  -39.3095  156.0270    3.8625 H   0  0  0  0  0  0  0  0  0  0  0  0
  -38.0710  159.3390    3.9850 H   0  0  0  0  0  0  0  0  0  0  0  0
  -42.1607  159.3296    1.8127 H   0  0  0  0  0  0  0  0  0  0  0  0
  -41.3545  159.4288   -0.5195 H   0  0  0  0  0  0  0  0  0  0  0  0
  -39.3678  157.0456   -1.3822 H   0  0  0  0  0  0  0  0  0  0  0  0
  -40.0090  158.1071   -2.6817 H   0  0  0  0  0  0  0  0  0  0  0  0
  -38.2762  157.6339   -2.6817 H   0  0  0  0  0  0  0  0  0  0  0  0
  -39.2815  161.5673   -0.3610 H   0  0  0  0  0  0  0  0  0  0  0  0
  -39.2822  163.7466   -1.6742 H   0  0  0  0  0  0  0  0  0  0  0  0
  -38.9497  165.3687   -3.3417 H   0  0  0  0  0  0  0  0  0  0  0  0
  -38.0646  165.5307   -4.8964 H   0  0  0  0  0  0  0  0  0  0  0  0
  -39.8478  165.3149   -4.8964 H   0  0  0  0  0  0  0  0  0  0  0  0
  -37.9363  164.5041   -6.8247 H   0  0  0  0  0  0  0  0  0  0  0  0
  -37.5013  162.8840   -7.4671 H   0  0  0  0  0  0  0  0  0  0  0  0
  -39.2160  163.4195   -7.4671 H   0  0  0  0  0  0  0  0  0  0  0  0
  -38.3231  159.1528   -3.9008 H   0  0  0  0  0  0  0  0  0  0  0  0
  -35.7011  158.3333    4.3166 H   0  0  0  0  0  0  0  0  0  0  0  0
  -32.6570  157.6990    4.1070 H   0  0  0  0  0  0  0  0  0  0  0  0
  -33.0710  158.4830    5.5670 H   0  0  0  0  0  0  0  0  0  0  0  0
  1  2  1  0
  2  3  1  0
  3  4  2  0
  4  5  1  0
  5  6  1  0
  6  7  1  0
  7  8  2  0
  8  9  1  0
  9 10  2  0
 10 11  1  0
 11 12  1  0
 12 13  1  0
 12 14  1  0
 14 15  1  0
 15 16  2  0
 16 17  1  0
 17 18  2  0
 18 19  1  0
 18 20  1  0
 20 21  1  0
 20 22  1  0
 22 23  2  0
 23 24  1  0
 11 25  2  0
  5 26  2  0
 26 27  1  0
 27 28  1  0
 28 29  1  0
 28 30  2  0
 28 31  2  0
 27  2  2  0
 25  7  1  0
 24 14  2  0
 23 17  1  0
  1 32  1  0
  1 33  1  0
  1 34  1  0
  3 35  1  0
  4 36  1  0
  6 37  1  0
  9 38  1  0
 10 39  1  0
 13 40  1  0
 13 41  1  0
 13 42  1  0
 15 43  1  0
 16 44  1  0
 19 45  1  0
 19 46  1  0
 19 47  1  0
 21 48  1  0
 21 49  1  0
 21 50  1  0
 24 51  1  0
 26 52  1  0
 29 53  1  0
 29 54  1  0
M  END
>  <meeko>  (4) 
{"is_sidechain": false}

>  <vina_affinity_kcal_mol>  (4) 
-10.374

>  <pose_rank>  (4) 
4

$$$$

     RDKit          3D

 54 57  0  0  0  0  0  0  0  0999 V2000
  -42.2550  160.8300    0.4550 C   0  0  0  0  0  0  0  0  0  0  0  0
  -41.2040  159.8870    0.9710 C   0  0  0  0  0  0  0  0  0  0  0  0
  -41.5340  159.0040    2.0080 C   0  0  0  0  0  0  0  0  0  0  0  0
  -40.5880  158.1110    2.5240 C   0  0  0  0  0  0  0  0  0  0  0  0
  -39.2840  158.0630    2.0300 C   0  0  0  0  0  0  0  0  0  0  0  0
  -38.2970  157.2000    2.5140 N   0  0  0  0  0  0  0  0  0  0  0  0
  -37.4880  157.1850    3.6470 C   0  0  0  0  0  0  0  0  0  0  0  0
  -37.4820  158.3320    4.3400 N   0  0  0  0  0  0  0  0  0  0  0  0
  -36.7260  158.3680    5.4480 C   0  0  0  0  0  0  0  0  0  0  0  0
  -35.9730  157.3080    5.8820 C   0  0  0  0  0  0  0  0  0  0  0  0
  -36.0150  156.1590    5.1130 C   0  0  0  0  0  0  0  0  0  0  0  0
  -35.2690  155.0240    5.5340 N   0  0  0  0  0  0  0  0  0  0  0  0
  -34.2680  155.3350    6.5620 C   0  0  0  0  0  0  0  0  0  0  0  0
  -35.8150  153.7140    5.7230 C   0  0  0  0  0  0  0  0  0  0  0  0
  -37.2160  153.5500    6.0210 C   0  0  0  0  0  0  0  0  0  0  0  0
  -37.8530  152.3060    6.2230 C   0  0  0  0  0  0  0  0  0  0  0  0
  -36.9540  151.2540    6.1030 C   0  0  0  0  0  0  0  0  0  0  0  0
  -37.2470  149.9180    6.2410 C   0  0  0  0  0  0  0  0  0  0  0  0
  -38.5020  149.1850    6.5360 C   0  0  0  0  0  0  0  0  0  0  0  0
  -36.0390  149.2910    6.0440 N   0  0  0  0  0  0  0  0  0  0  0  0
  -35.7860  147.8680    6.0840 C   0  0  0  0  0  0  0  0  0  0  0  0
  -35.0120  150.1240    5.7770 N   0  0  0  0  0  0  0  0  0  0  0  0
  -35.5460  151.3550    5.8120 C   0  0  0  0  0  0  0  0  0  0  0  0
  -34.9360  152.6040    5.6150 C   0  0  0  0  0  0  0  0  0  0  0  0
  -36.7840  156.1020    4.0060 N   0  0  0  0  0  0  0  0  0  0  0  0
  -38.9480  158.9570    1.0030 C   0  0  0  0  0  0  0  0  0  0  0  0
  -39.8890  159.8620    0.4800 C   0  0  0  0  0  0  0  0  0  0  0  0
  -39.3920  160.9850   -0.8000 S   0  0  0  0  0  0  0  0  0  0  0  0
  -38.0120  160.2970   -1.4770 N   0  0  0  0  0  0  0  0  0  0  0  0
  -40.3880  160.9550   -1.8440 O   0  0  0  0  0  0  0  0  0  0  0  0
  -38.9240  162.2100   -0.1960 O   0  0  0  0  0  0  0  0  0  0  0  0
  -42.7763  161.2977    1.3032 H   0  0  0  0  0  0  0  0  0  0  0  0
  -41.7791  161.6096   -0.1579 H   0  0  0  0  0  0  0  0  0  0  0  0
  -42.9787  160.2726   -0.1579 H   0  0  0  0  0  0  0  0  0  0  0  0
  -42.5527  159.0129    2.4230 H   0  0  0  0  0  0  0  0  0  0  0  0
  -40.8793  157.4310    3.3381 H   0  0  0  0  0  0  0  0  0  0  0  0
  -38.1200  156.3570    1.9880 H   0  0  0  0  0  0  0  0  0  0  0  0
  -36.7097  159.2959    6.0385 H   0  0  0  0  0  0  0  0  0  0  0  0
  -35.3652  157.3681    6.7969 H   0  0  0  0  0  0  0  0  0  0  0  0
  -34.7115  155.1972    7.5592 H   0  0  0  0  0  0  0  0  0  0  0  0
  -33.4048  154.6627    6.4485 H   0  0  0  0  0  0  0  0  0  0  0  0
  -33.9378  156.3781    6.4485 H   0  0  0  0  0  0  0  0  0  0  0  0
  -37.8323  154.4580    6.0963 H   0  0  0  0  0  0  0  0  0  0  0  0
  -38.9233  152.1856    6.4466 H   0  0  0  0  0  0  0  0  0  0  0  0
  -38.6341  149.1078    7.6253 H   0  0  0  0  0  0  0  0  0  0  0  0
  -39.3543  149.7273    6.1008 H   0  0  0  0  0  0  0  0  0  0  0  0
  -38.4484  148.1762    6.1008 H   0  0  0  0  0  0  0  0  0  0  0  0
  -35.7269  147.5354    7.1308 H   0  0  0  0  0  0  0  0  0  0  0  0
  -36.6036  147.3358    5.5758 H   0  0  0  0  0  0  0  0  0  0  0  0
  -34.8351  147.6502    5.5758 H   0  0  0  0  0  0  0  0  0  0  0  0
  -33.8639  152.7139    5.3948 H   0  0  0  0  0  0  0  0  0  0  0  0
  -37.9255  158.9502    0.5974 H   0  0  0  0  0  0  0  0  0  0  0  0
  -37.3960  159.9860   -0.7240 H   0  0  0  0  0  0  0  0  0  0  0  0
  -37.5770  160.9740   -2.1050 H   0  0  0  0  0  0  0  0  0  0  0  0
  1  2  1  0
  2  3  1  0
  3  4  2  0
  4  5  1  0
  5  6  1  0
  6  7  1  0
  7  8  2  0
  8  9  1  0
  9 10  2  0
 10 11  1  0
 11 12  1  0
 12 13  1  0
 12 14  1  0
 14 15  1  0
 15 16  2  0
 16 17  1  0
 17 18  2  0
 18 19  1  0
 18 20  1  0
 20 21  1  0
 20 22  1  0
 22 23  2  0
 23 24  1  0
 11 25  2  0
  5 26  2  0
 26 27  1  0
 27 28  1  0
 28 29  1  0
 28 30  2  0
 28 31  2  0
 27  2  2  0
 25  7  1  0
 24 14  2  0
 23 17  1  0
  1 32  1  0
  1 33  1  0
  1 34  1  0
  3 35  1  0
  4 36  1  0
  6 37  1  0
  9 38  1  0
 10 39  1  0
 13 40  1  0
 13 41  1  0
 13 42  1  0
 15 43  1  0
 16 44  1  0
 19 45  1  0
 19 46  1  0
 19 47  1  0
 21 48  1  0
 21 49  1  0
 21 50  1  0
 24 51  1  0
 26 52  1  0
 29 53  1  0
 29 54  1  0
M  END
>  <meeko>  (5) 
{"is_sidechain": false}

>  <vina_affinity_kcal_mol>  (5) 
-9.787

>  <pose_rank>  (5) 
5

$$$$

     RDKit          3D

 54 57  0  0  0  0  0  0  0  0999 V2000
  -36.8440  163.9990  -10.5650 C   0  0  0  0  0  0  0  0  0  0  0  0
  -37.4040  164.2510   -9.1940 C   0  0  0  0  0  0  0  0  0  0  0  0
  -37.7470  165.5600   -8.8310 C   0  0  0  0  0  0  0  0  0  0  0  0
  -38.2680  165.8450   -7.5630 C   0  0  0  0  0  0  0  0  0  0  0  0
  -38.4650  164.8430   -6.6130 C   0  0  0  0  0  0  0  0  0  0  0  0
  -38.9700  165.0710   -5.3300 N   0  0  0  0  0  0  0  0  0  0  0  0
  -38.9090  164.3800   -4.1230 C   0  0  0  0  0  0  0  0  0  0  0  0
  -38.5600  165.1320   -3.0690 N   0  0  0  0  0  0  0  0  0  0  0  0
  -38.4980  164.5180   -1.8780 C   0  0  0  0  0  0  0  0  0  0  0  0
  -38.7610  163.1840   -1.7040 C   0  0  0  0  0  0  0  0  0  0  0  0
  -39.1030  162.4640   -2.8340 C   0  0  0  0  0  0  0  0  0  0  0  0
  -39.4070  161.0810   -2.7010 N   0  0  0  0  0  0  0  0  0  0  0  0
  -38.6100  160.2230   -3.5860 C   0  0  0  0  0  0  0  0  0  0  0  0
  -39.6900  160.4240   -1.4610 C   0  0  0  0  0  0  0  0  0  0  0  0
  -41.0280  160.4370   -0.9240 C   0  0  0  0  0  0  0  0  0  0  0  0
  -41.4140  159.8220    0.2870 C   0  0  0  0  0  0  0  0  0  0  0  0
  -40.3340  159.2000    0.9020 C   0  0  0  0  0  0  0  0  0  0  0  0
  -40.3650  158.5110    2.0910 C   0  0  0  0  0  0  0  0  0  0  0  0
  -41.4520  158.2070    3.0530 C   0  0  0  0  0  0  0  0  0  0  0  0
  -39.0640  158.1030    2.2720 N   0  0  0  0  0  0  0  0  0  0  0  0
  -38.5450  157.3360    3.3830 C   0  0  0  0  0  0  0  0  0  0  0  0
  -38.2200  158.4660    1.2850 N   0  0  0  0  0  0  0  0  0  0  0  0
  -38.9770  159.1570    0.4180 C   0  0  0  0  0  0  0  0  0  0  0  0
  -38.6200  159.7770   -0.7900 C   0  0  0  0  0  0  0  0  0  0  0  0
  -39.1870  163.0710   -4.0350 N   0  0  0  0  0  0  0  0  0  0  0  0
  -38.1050  163.5340   -6.9690 C   0  0  0  0  0  0  0  0  0  0  0  0
  -37.5770  163.2380   -8.2380 C   0  0  0  0  0  0  0  0  0  0  0  0
  -37.1180  161.5660   -8.6160 S   0  0  0  0  0  0  0  0  0  0  0  0
  -38.1360  160.6080   -7.6770 N   0  0  0  0  0  0  0  0  0  0  0  0
  -37.4860  161.2910   -9.9840 O   0  0  0  0  0  0  0  0  0  0  0  0
  -35.7980  161.3100   -8.0910 O   0  0  0  0  0  0  0  0  0  0  0  0
  -35.8442  163.5491  -10.4757 H   0  0  0  0  0  0  0  0  0  0  0  0
  -37.5075  163.3127  -11.1116 H   0  0  0  0  0  0  0  0  0  0  0  0
  -36.7703  164.9507  -11.1116 H   0  0  0  0  0  0  0  0  0  0  0  0
  -37.6047  166.3769   -9.5537 H   0  0  0  0  0  0  0  0  0  0  0  0
  -38.5280  166.8835   -7.3102 H   0  0  0  0  0  0  0  0  0  0  0  0
  -39.4590  165.9400   -5.1720 H   0  0  0  0  0  0  0  0  0  0  0  0
  -38.2222  165.1152   -0.9964 H   0  0  0  0  0  0  0  0  0  0  0  0
  -38.7028  162.7092   -0.7134 H   0  0  0  0  0  0  0  0  0  0  0  0
  -37.9853  159.5506   -2.9797 H   0  0  0  0  0  0  0  0  0  0  0  0
  -39.2817  159.6265   -4.2208 H   0  0  0  0  0  0  0  0  0  0  0  0
  -37.9657  160.8490   -4.2208 H   0  0  0  0  0  0  0  0  0  0  0  0
  -41.8038  160.9638   -1.4990 H   0  0  0  0  0  0  0  0  0  0  0  0
  -42.4370  159.8337    0.6913 H   0  0  0  0  0  0  0  0  0  0  0  0
  -41.0729  158.3130    4.0801 H   0  0  0  0  0  0  0  0  0  0  0  0
  -42.2866  158.9062    2.8962 H   0  0  0  0  0  0  0  0  0  0  0  0
  -41.8028  157.1763    2.8962 H   0  0  0  0  0  0  0  0  0  0  0  0
  -38.8599  157.8013    4.3287 H   0  0  0  0  0  0  0  0  0  0  0  0
  -38.9341  156.3083    3.3326 H   0  0  0  0  0  0  0  0  0  0  0  0
  -37.4464  157.3150    3.3326 H   0  0  0  0  0  0  0  0  0  0  0  0
  -37.5933  159.7624   -1.1846 H   0  0  0  0  0  0  0  0  0  0  0  0
  -38.2389  162.7219   -6.2392 H   0  0  0  0  0  0  0  0  0  0  0  0
  -38.8780  161.1950   -7.2910 H   0  0  0  0  0  0  0  0  0  0  0  0
  -37.5810  160.1320   -6.9650 H   0  0  0  0  0  0  0  0  0  0  0  0
  1  2  1  0
  2  3  1  0
  3  4  2  0
  4  5  1  0
  5  6  1  0
  6  7  1  0
  7  8  2  0
  8  9  1  0
  9 10  2  0
 10 11  1  0
 11 12  1  0
 12 13  1  0
 12 14  1  0
 14 15  1  0
 15 16  2  0
 16 17  1  0
 17 18  2  0
 18 19  1  0
 18 20  1  0
 20 21  1  0
 20 22  1  0
 22 23  2  0
 23 24  1  0
 11 25  2  0
  5 26  2  0
 26 27  1  0
 27 28  1  0
 28 29  1  0
 28 30  2  0
 28 31  2  0
 27  2  2  0
 25  7  1  0
 24 14  2  0
 23 17  1  0
  1 32  1  0
  1 33  1  0
  1 34  1  0
  3 35  1  0
  4 36  1  0
  6 37  1  0
  9 38  1  0
 10 39  1  0
 13 40  1  0
 13 41  1  0
 13 42  1  0
 15 43  1  0
 16 44  1  0
 19 45  1  0
 19 46  1  0
 19 47  1  0
 21 48  1  0
 21 49  1  0
 21 50  1  0
 24 51  1  0
 26 52  1  0
 29 53  1  0
 29 54  1  0
M  END
>  <meeko>  (6) 
{"is_sidechain": false}

>  <vina_affinity_kcal_mol>  (6) 
-9.481

>  <pose_rank>  (6) 
6

$$$$

     RDKit          3D

 54 57  0  0  0  0  0  0  0  0999 V2000
  -41.9860  158.1650    2.7000 C   0  0  0  0  0  0  0  0  0  0  0  0
  -41.3690  159.1380    1.7340 C   0  0  0  0  0  0  0  0  0  0  0  0
  -42.2080  159.9660    0.9770 C   0  0  0  0  0  0  0  0  0  0  0  0
  -41.6800  160.8850    0.0610 C   0  0  0  0  0  0  0  0  0  0  0  0
  -40.3040  161.0110   -0.1340 C   0  0  0  0  0  0  0  0  0  0  0  0
  -39.7230  161.9020   -1.0420 N   0  0  0  0  0  0  0  0  0  0  0  0
  -39.3370  161.8180   -2.3770 C   0  0  0  0  0  0  0  0  0  0  0  0
  -39.3360  160.5740   -2.8770 N   0  0  0  0  0  0  0  0  0  0  0  0
  -38.9830  160.4370   -4.1640 C   0  0  0  0  0  0  0  0  0  0  0  0
  -38.6230  161.4920   -4.9630 C   0  0  0  0  0  0  0  0  0  0  0  0
  -38.6330  162.7460   -4.3800 C   0  0  0  0  0  0  0  0  0  0  0  0
  -38.2900  163.8750   -5.1750 N   0  0  0  0  0  0  0  0  0  0  0  0
  -37.2480  164.7140   -4.5700 C   0  0  0  0  0  0  0  0  0  0  0  0
  -38.1840  163.8660   -6.6020 C   0  0  0  0  0  0  0  0  0  0  0  0
  -38.1180  162.6140   -7.3150 C   0  0  0  0  0  0  0  0  0  0  0  0
  -38.0130  162.4940   -8.7180 C   0  0  0  0  0  0  0  0  0  0  0  0
  -37.9800  163.7410   -9.3290 C   0  0  0  0  0  0  0  0  0  0  0  0
  -37.8820  163.9790  -10.6790 C   0  0  0  0  0  0  0  0  0  0  0  0
  -37.7910  163.0840  -11.8580 C   0  0  0  0  0  0  0  0  0  0  0  0
  -37.8770  165.3510  -10.7750 N   0  0  0  0  0  0  0  0  0  0  0  0
  -37.7870  166.1340  -11.9880 C   0  0  0  0  0  0  0  0  0  0  0  0
  -37.9780  165.9960   -9.5950 N   0  0  0  0  0  0  0  0  0  0  0  0
  -38.0380  165.0230   -8.6720 C   0  0  0  0  0  0  0  0  0  0  0  0
  -38.1410  165.1150   -7.2750 C   0  0  0  0  0  0  0  0  0  0  0  0
  -39.0040  162.9010   -3.0920 N   0  0  0  0  0  0  0  0  0  0  0  0
  -39.4650  160.1710    0.6110 C   0  0  0  0  0  0  0  0  0  0  0  0
  -39.9840  159.2420    1.5300 C   0  0  0  0  0  0  0  0  0  0  0  0
  -38.8680  158.1890    2.4220 S   0  0  0  0  0  0  0  0  0  0  0  0
  -37.5390  157.9960    1.4050 N   0  0  0  0  0  0  0  0  0  0  0  0
  -38.3740  158.9160    3.5660 O   0  0  0  0  0  0  0  0  0  0  0  0
  -39.4420  156.8690    2.5190 O   0  0  0  0  0  0  0  0  0  0  0  0
  -41.7796  158.4904    3.7303 H   0  0  0  0  0  0  0  0  0  0  0  0
  -43.0734  158.1273    2.5382 H   0  0  0  0  0  0  0  0  0  0  0  0
  -41.5564  157.1654    2.5382 H   0  0  0  0  0  0  0  0  0  0  0  0
  -43.2982  159.8934    1.1038 H   0  0  0  0  0  0  0  0  0  0  0  0
  -42.3655  161.5216   -0.5176 H   0  0  0  0  0  0  0  0  0  0  0  0
  -39.5670  162.8480   -0.7270 H   0  0  0  0  0  0  0  0  0  0  0  0
  -38.9823  159.4273   -4.6006 H   0  0  0  0  0  0  0  0  0  0  0  0
  -38.3401  161.3478   -6.0162 H   0  0  0  0  0  0  0  0  0  0  0  0
  -37.3206  164.6555   -3.4740 H   0  0  0  0  0  0  0  0  0  0  0  0
  -36.2581  164.3580   -4.8914 H   0  0  0  0  0  0  0  0  0  0  0  0
  -37.3846  165.7571   -4.8914 H   0  0  0  0  0  0  0  0  0  0  0  0
  -38.1519  161.6869   -6.7239 H   0  0  0  0  0  0  0  0  0  0  0  0
  -37.9637  161.5366   -9.2574 H   0  0  0  0  0  0  0  0  0  0  0  0
  -37.6851  162.0425  -11.5204 H   0  0  0  0  0  0  0  0  0  0  0  0
  -38.7037  163.1820  -12.4641 H   0  0  0  0  0  0  0  0  0  0  0  0
  -36.9167  163.3637  -12.4641 H   0  0  0  0  0  0  0  0  0  0  0  0
  -37.6649  167.1964  -11.7304 H   0  0  0  0  0  0  0  0  0  0  0  0
  -36.9216  165.7979  -12.5780 H   0  0  0  0  0  0  0  0  0  0  0  0
  -38.7061  166.0031  -12.5780 H   0  0  0  0  0  0  0  0  0  0  0  0
  -38.1849  166.0776   -6.7445 H   0  0  0  0  0  0  0  0  0  0  0  0
  -38.3758  160.2401    0.4736 H   0  0  0  0  0  0  0  0  0  0  0  0
  -36.7010  158.3140    1.8950 H   0  0  0  0  0  0  0  0  0  0  0  0
  -37.7140  158.4940    0.5320 H   0  0  0  0  0  0  0  0  0  0  0  0
  1  2  1  0
  2  3  1  0
  3  4  2  0
  4  5  1  0
  5  6  1  0
  6  7  1  0
  7  8  2  0
  8  9  1  0
  9 10  2  0
 10 11  1  0
 11 12  1  0
 12 13  1  0
 12 14  1  0
 14 15  1  0
 15 16  2  0
 16 17  1  0
 17 18  2  0
 18 19  1  0
 18 20  1  0
 20 21  1  0
 20 22  1  0
 22 23  2  0
 23 24  1  0
 11 25  2  0
  5 26  2  0
 26 27  1  0
 27 28  1  0
 28 29  1  0
 28 30  2  0
 28 31  2  0
 27  2  2  0
 25  7  1  0
 24 14  2  0
 23 17  1  0
  1 32  1  0
  1 33  1  0
  1 34  1  0
  3 35  1  0
  4 36  1  0
  6 37  1  0
  9 38  1  0
 10 39  1  0
 13 40  1  0
 13 41  1  0
 13 42  1  0
 15 43  1  0
 16 44  1  0
 19 45  1  0
 19 46  1  0
 19 47  1  0
 21 48  1  0
 21 49  1  0
 21 50  1  0
 24 51  1  0
 26 52  1  0
 29 53  1  0
 29 54  1  0
M  END
>  <meeko>  (7) 
{"is_sidechain": false}

>  <vina_affinity_kcal_mol>  (7) 
-9.339

>  <pose_rank>  (7) 
7

$$$$

     RDKit          3D

 54 57  0  0  0  0  0  0  0  0999 V2000
  -35.7770  154.4030  -12.1430 C   0  0  0  0  0  0  0  0  0  0  0  0
  -35.8590  155.6290  -11.2770 C   0  0  0  0  0  0  0  0  0  0  0  0
  -34.8300  156.5770  -11.3450 C   0  0  0  0  0  0  0  0  0  0  0  0
  -34.8610  157.7320  -10.5530 C   0  0  0  0  0  0  0  0  0  0  0  0
  -35.9100  157.9840   -9.6700 C   0  0  0  0  0  0  0  0  0  0  0  0
  -35.9870  159.1130   -8.8490 N   0  0  0  0  0  0  0  0  0  0  0  0
  -36.6490  160.3340   -8.9330 C   0  0  0  0  0  0  0  0  0  0  0  0
  -37.1010  160.6380  -10.1580 N   0  0  0  0  0  0  0  0  0  0  0  0
  -37.7580  161.8000  -10.2930 C   0  0  0  0  0  0  0  0  0  0  0  0
  -37.9700  162.6700   -9.2550 C   0  0  0  0  0  0  0  0  0  0  0  0
  -37.4660  162.3020   -8.0210 C   0  0  0  0  0  0  0  0  0  0  0  0
  -37.6810  163.1610   -6.9070 N   0  0  0  0  0  0  0  0  0  0  0  0
  -38.2860  164.4470   -7.2740 C   0  0  0  0  0  0  0  0  0  0  0  0
  -38.1270  162.7280   -5.6180 C   0  0  0  0  0  0  0  0  0  0  0  0
  -38.4860  163.6980   -4.6130 C   0  0  0  0  0  0  0  0  0  0  0  0
  -38.9380  163.3780   -3.3140 C   0  0  0  0  0  0  0  0  0  0  0  0
  -38.9890  162.0020   -3.1230 C   0  0  0  0  0  0  0  0  0  0  0  0
  -39.3840  161.3590   -1.9750 C   0  0  0  0  0  0  0  0  0  0  0  0
  -39.8550  161.8450   -0.6550 C   0  0  0  0  0  0  0  0  0  0  0  0
  -39.2510  160.0240   -2.2800 N   0  0  0  0  0  0  0  0  0  0  0  0
  -39.5350  158.9050   -1.4090 C   0  0  0  0  0  0  0  0  0  0  0  0
  -38.8180  159.7760   -3.5330 N   0  0  0  0  0  0  0  0  0  0  0  0
  -38.6390  160.9870   -4.0840 C   0  0  0  0  0  0  0  0  0  0  0  0
  -38.1930  161.3320   -5.3700 C   0  0  0  0  0  0  0  0  0  0  0  0
  -36.8200  161.1280   -7.8660 N   0  0  0  0  0  0  0  0  0  0  0  0
  -36.9320  157.0260   -9.5890 C   0  0  0  0  0  0  0  0  0  0  0  0
  -36.9100  155.8610  -10.3760 C   0  0  0  0  0  0  0  0  0  0  0  0
  -38.2200  154.6760  -10.2060 S   0  0  0  0  0  0  0  0  0  0  0  0
  -39.0100  155.0960   -8.7800 N   0  0  0  0  0  0  0  0  0  0  0  0
  -39.1800  154.9060  -11.2590 O   0  0  0  0  0  0  0  0  0  0  0  0
  -37.6490  153.3790   -9.9330 O   0  0  0  0  0  0  0  0  0  0  0  0
  -35.7171  153.5078  -11.5065 H   0  0  0  0  0  0  0  0  0  0  0  0
  -36.6731  154.3421  -12.7781 H   0  0  0  0  0  0  0  0  0  0  0  0
  -34.8808  154.4620  -12.7781 H   0  0  0  0  0  0  0  0  0  0  0  0
  -33.9854  156.4121  -12.0302 H   0  0  0  0  0  0  0  0  0  0  0  0
  -34.0378  158.4576  -10.6296 H   0  0  0  0  0  0  0  0  0  0  0  0
  -35.5110  159.0720   -7.9600 H   0  0  0  0  0  0  0  0  0  0  0  0
  -38.1461  162.0681  -11.2867 H   0  0  0  0  0  0  0  0  0  0  0  0
  -38.5147  163.6151   -9.3969 H   0  0  0  0  0  0  0  0  0  0  0  0
  -38.5475  165.0029   -6.3615 H   0  0  0  0  0  0  0  0  0  0  0  0
  -37.5692  165.0333   -7.8678 H   0  0  0  0  0  0  0  0  0  0  0  0
  -39.1946  164.2686   -7.8678 H   0  0  0  0  0  0  0  0  0  0  0  0
  -38.4018  164.7625   -4.8770 H   0  0  0  0  0  0  0  0  0  0  0  0
  -39.2141  164.1215   -2.5518 H   0  0  0  0  0  0  0  0  0  0  0  0
  -39.3292  161.3024    0.1444 H   0  0  0  0  0  0  0  0  0  0  0  0
  -39.6476  162.9215   -0.5653 H   0  0  0  0  0  0  0  0  0  0  0  0
  -40.9375  161.6714   -0.5653 H   0  0  0  0  0  0  0  0  0  0  0  0
  -39.4534  159.2267   -0.3603 H   0  0  0  0  0  0  0  0  0  0  0  0
  -40.5544  158.5395   -1.6021 H   0  0  0  0  0  0  0  0  0  0  0  0
  -38.8133  158.0976   -1.6021 H   0  0  0  0  0  0  0  0  0  0  0  0
  -37.9169  160.5808   -6.1246 H   0  0  0  0  0  0  0  0  0  0  0  0
  -37.7690  157.1900   -8.8944 H   0  0  0  0  0  0  0  0  0  0  0  0
  -38.3580  155.6060   -8.1800 H   0  0  0  0  0  0  0  0  0  0  0  0
  -39.3860  154.2510   -8.3470 H   0  0  0  0  0  0  0  0  0  0  0  0
  1  2  1  0
  2  3  1  0
  3  4  2  0
  4  5  1  0
  5  6  1  0
  6  7  1  0
  7  8  2  0
  8  9  1  0
  9 10  2  0
 10 11  1  0
 11 12  1  0
 12 13  1  0
 12 14  1  0
 14 15  1  0
 15 16  2  0
 16 17  1  0
 17 18  2  0
 18 19  1  0
 18 20  1  0
 20 21  1  0
 20 22  1  0
 22 23  2  0
 23 24  1  0
 11 25  2  0
  5 26  2  0
 26 27  1  0
 27 28  1  0
 28 29  1  0
 28 30  2  0
 28 31  2  0
 27  2  2  0
 25  7  1  0
 24 14  2  0
 23 17  1  0
  1 32  1  0
  1 33  1  0
  1 34  1  0
  3 35  1  0
  4 36  1  0
  6 37  1  0
  9 38  1  0
 10 39  1  0
 13 40  1  0
 13 41  1  0
 13 42  1  0
 15 43  1  0
 16 44  1  0
 19 45  1  0
 19 46  1  0
 19 47  1  0
 21 48  1  0
 21 49  1  0
 21 50  1  0
 24 51  1  0
 26 52  1  0
 29 53  1  0
 29 54  1  0
M  END
>  <meeko>  (8) 
{"is_sidechain": false}

>  <vina_affinity_kcal_mol>  (8) 
-9.122

>  <pose_rank>  (8) 
8

$$$$

     RDKit          3D

 54 57  0  0  0  0  0  0  0  0999 V2000
  -34.2190  145.9140   -1.8700 C   0  0  0  0  0  0  0  0  0  0  0  0
  -34.2770  146.7290   -0.6090 C   0  0  0  0  0  0  0  0  0  0  0  0
  -33.5920  146.2730    0.5250 C   0  0  0  0  0  0  0  0  0  0  0  0
  -33.6210  146.9950    1.7250 C   0  0  0  0  0  0  0  0  0  0  0  0
  -34.3290  148.1920    1.8390 C   0  0  0  0  0  0  0  0  0  0  0  0
  -34.4020  148.9480    3.0120 N   0  0  0  0  0  0  0  0  0  0  0  0
  -35.3730  149.1340    3.9920 C   0  0  0  0  0  0  0  0  0  0  0  0
  -36.4010  148.2750    3.9250 N   0  0  0  0  0  0  0  0  0  0  0  0
  -37.3610  148.4030    4.8540 C   0  0  0  0  0  0  0  0  0  0  0  0
  -37.3360  149.3600    5.8360 C   0  0  0  0  0  0  0  0  0  0  0  0
  -36.2540  150.2200    5.8400 C   0  0  0  0  0  0  0  0  0  0  0  0
  -36.1720  151.2150    6.8530 N   0  0  0  0  0  0  0  0  0  0  0  0
  -35.1820  150.9050    7.8920 C   0  0  0  0  0  0  0  0  0  0  0  0
  -36.2530  152.6250    6.6200 C   0  0  0  0  0  0  0  0  0  0  0  0
  -35.6170  153.5460    7.5290 C   0  0  0  0  0  0  0  0  0  0  0  0
  -35.6360  154.9520    7.3910 C   0  0  0  0  0  0  0  0  0  0  0  0
  -36.3520  155.3370    6.2640 C   0  0  0  0  0  0  0  0  0  0  0  0
  -36.5630  156.6280    5.8410 C   0  0  0  0  0  0  0  0  0  0  0  0
  -36.1430  157.9470    6.3750 C   0  0  0  0  0  0  0  0  0  0  0  0
  -37.3240  156.4850    4.7050 N   0  0  0  0  0  0  0  0  0  0  0  0
  -37.8290  157.5460    3.8630 C   0  0  0  0  0  0  0  0  0  0  0  0
  -37.5970  155.2070    4.3710 N   0  0  0  0  0  0  0  0  0  0  0  0
  -37.0110  154.4660    5.3240 C   0  0  0  0  0  0  0  0  0  0  0  0
  -36.9770  153.0720    5.4850 C   0  0  0  0  0  0  0  0  0  0  0  0
  -35.2730  150.0930    4.9230 N   0  0  0  0  0  0  0  0  0  0  0  0
  -35.0290  148.6400    0.7090 C   0  0  0  0  0  0  0  0  0  0  0  0
  -35.0110  147.9200   -0.4990 C   0  0  0  0  0  0  0  0  0  0  0  0
  -35.9390  148.5290   -1.8840 S   0  0  0  0  0  0  0  0  0  0  0  0
  -35.7880  150.2040   -1.8120 N   0  0  0  0  0  0  0  0  0  0  0  0
  -35.2610  148.1330   -3.0950 O   0  0  0  0  0  0  0  0  0  0  0  0
  -37.3420  148.2830   -1.6540 O   0  0  0  0  0  0  0  0  0  0  0  0
  -34.1431  144.8470   -1.6138 H   0  0  0  0  0  0  0  0  0  0  0  0
  -35.1316  146.0854   -2.4597 H   0  0  0  0  0  0  0  0  0  0  0  0
  -33.3399  146.2130   -2.4597 H   0  0  0  0  0  0  0  0  0  0  0  0
  -33.0226  145.3333    0.4721 H   0  0  0  0  0  0  0  0  0  0  0  0
  -33.0731  146.6095    2.5975 H   0  0  0  0  0  0  0  0  0  0  0  0
  -33.5760  149.4590    3.2860 H   0  0  0  0  0  0  0  0  0  0  0  0
  -38.2108  147.7051    4.8264 H   0  0  0  0  0  0  0  0  0  0  0  0
  -38.1383  149.4393    6.5843 H   0  0  0  0  0  0  0  0  0  0  0  0
  -35.6351  151.0469    8.8842 H   0  0  0  0  0  0  0  0  0  0  0  0
  -34.8530  149.8608    7.7851 H   0  0  0  0  0  0  0  0  0  0  0  0
  -34.3162  151.5750    7.7851 H   0  0  0  0  0  0  0  0  0  0  0  0
  -35.0790  153.1242    8.3908 H   0  0  0  0  0  0  0  0  0  0  0  0
  -35.1474  155.6512    8.0856 H   0  0  0  0  0  0  0  0  0  0  0  0
  -36.1525  157.9173    7.4746 H   0  0  0  0  0  0  0  0  0  0  0  0
  -35.1268  158.1783    6.0232 H   0  0  0  0  0  0  0  0  0  0  0  0
  -36.8384  158.7233    6.0232 H   0  0  0  0  0  0  0  0  0  0  0  0
  -38.2167  158.3606    4.4924 H   0  0  0  0  0  0  0  0  0  0  0  0
  -37.0163  157.9284    3.2279 H   0  0  0  0  0  0  0  0  0  0  0  0
  -38.6383  157.1564    3.2279 H   0  0  0  0  0  0  0  0  0  0  0  0
  -37.4723  152.3813    4.7867 H   0  0  0  0  0  0  0  0  0  0  0  0
  -35.6048  149.5753    0.7690 H   0  0  0  0  0  0  0  0  0  0  0  0
  -36.6990  150.6260   -2.0020 H   0  0  0  0  0  0  0  0  0  0  0  0
  -35.0580  150.5000   -2.4620 H   0  0  0  0  0  0  0  0  0  0  0  0
  1  2  1  0
  2  3  1  0
  3  4  2  0
  4  5  1  0
  5  6  1  0
  6  7  1  0
  7  8  2  0
  8  9  1  0
  9 10  2  0
 10 11  1  0
 11 12  1  0
 12 13  1  0
 12 14  1  0
 14 15  1  0
 15 16  2  0
 16 17  1  0
 17 18  2  0
 18 19  1  0
 18 20  1  0
 20 21  1  0
 20 22  1  0
 22 23  2  0
 23 24  1  0
 11 25  2  0
  5 26  2  0
 26 27  1  0
 27 28  1  0
 28 29  1  0
 28 30  2  0
 28 31  2  0
 27  2  2  0
 25  7  1  0
 24 14  2  0
 23 17  1  0
  1 32  1  0
  1 33  1  0
  1 34  1  0
  3 35  1  0
  4 36  1  0
  6 37  1  0
  9 38  1  0
 10 39  1  0
 13 40  1  0
 13 41  1  0
 13 42  1  0
 15 43  1  0
 16 44  1  0
 19 45  1  0
 19 46  1  0
 19 47  1  0
 21 48  1  0
 21 49  1  0
 21 50  1  0
 24 51  1  0
 26 52  1  0
 29 53  1  0
 29 54  1  0
M  END
>  <meeko>  (9) 
{"is_sidechain": false}

>  <vina_affinity_kcal_mol>  (9) 
-8.905

>  <pose_rank>  (9) 
9

$$$$

     RDKit          3D

 54 57  0  0  0  0  0  0  0  0999 V2000
  -33.2570  146.6820   -1.1260 C   0  0  0  0  0  0  0  0  0  0  0  0
  -34.1780  147.2960   -0.1100 C   0  0  0  0  0  0  0  0  0  0  0  0
  -33.7280  147.4510    1.2080 C   0  0  0  0  0  0  0  0  0  0  0  0
  -34.5520  148.0130    2.1910 C   0  0  0  0  0  0  0  0  0  0  0  0
  -35.8480  148.4400    1.8990 C   0  0  0  0  0  0  0  0  0  0  0  0
  -36.7170  148.9980    2.8420 N   0  0  0  0  0  0  0  0  0  0  0  0
  -36.7640  149.0140    4.2330 C   0  0  0  0  0  0  0  0  0  0  0  0
  -37.3320  147.9310    4.7820 N   0  0  0  0  0  0  0  0  0  0  0  0
  -37.3920  147.8900    6.1220 C   0  0  0  0  0  0  0  0  0  0  0  0
  -36.9170  148.8910    6.9290 C   0  0  0  0  0  0  0  0  0  0  0  0
  -36.3540  149.9850    6.2970 C   0  0  0  0  0  0  0  0  0  0  0  0
  -35.8250  151.0390    7.0920 N   0  0  0  0  0  0  0  0  0  0  0  0
  -34.8750  150.5780    8.1120 C   0  0  0  0  0  0  0  0  0  0  0  0
  -35.4630  152.3320    6.5940 C   0  0  0  0  0  0  0  0  0  0  0  0
  -34.1430  152.5580    6.0600 C   0  0  0  0  0  0  0  0  0  0  0  0
  -33.6860  153.7900    5.5450 C   0  0  0  0  0  0  0  0  0  0  0  0
  -34.6730  154.7650    5.6220 C   0  0  0  0  0  0  0  0  0  0  0  0
  -34.5550  156.0710    5.2080 C   0  0  0  0  0  0  0  0  0  0  0  0
  -33.4480  156.8380    4.5880 C   0  0  0  0  0  0  0  0  0  0  0  0
  -35.7800  156.6240    5.5010 N   0  0  0  0  0  0  0  0  0  0  0  0
  -36.1910  157.9900    5.2680 C   0  0  0  0  0  0  0  0  0  0  0  0
  -36.6640  155.7670    6.0530 N   0  0  0  0  0  0  0  0  0  0  0  0
  -36.0050  154.6010    6.1470 C   0  0  0  0  0  0  0  0  0  0  0  0
  -36.4340  153.3650    6.6540 C   0  0  0  0  0  0  0  0  0  0  0  0
  -36.2700  150.0320    4.9510 N   0  0  0  0  0  0  0  0  0  0  0  0
  -36.3050  148.2700    0.5840 C   0  0  0  0  0  0  0  0  0  0  0  0
  -35.4880  147.7020   -0.4090 C   0  0  0  0  0  0  0  0  0  0  0  0
  -36.1360  147.4910   -2.0470 S   0  0  0  0  0  0  0  0  0  0  0  0
  -37.7630  147.9100   -1.9340 N   0  0  0  0  0  0  0  0  0  0  0  0
  -35.5420  148.4880   -2.9040 O   0  0  0  0  0  0  0  0  0  0  0  0
  -36.1490  146.0840   -2.3710 O   0  0  0  0  0  0  0  0  0  0  0  0
  -32.4487  146.1432   -0.6099 H   0  0  0  0  0  0  0  0  0  0  0  0
  -33.8222  145.9794   -1.7560 H   0  0  0  0  0  0  0  0  0  0  0  0
  -32.8258  147.4740   -1.7560 H   0  0  0  0  0  0  0  0  0  0  0  0
  -32.7115  147.1261    1.4747 H   0  0  0  0  0  0  0  0  0  0  0  0
  -34.1689  148.1203    3.2166 H   0  0  0  0  0  0  0  0  0  0  0  0
  -37.4750  149.5660    2.4940 H   0  0  0  0  0  0  0  0  0  0  0  0
  -37.8457  147.0077    6.5972 H   0  0  0  0  0  0  0  0  0  0  0  0
  -36.9804  148.8274    8.0253 H   0  0  0  0  0  0  0  0  0  0  0  0
  -35.2860  150.7774    9.1127 H   0  0  0  0  0  0  0  0  0  0  0  0
  -34.7057  149.4976    7.9938 H   0  0  0  0  0  0  0  0  0  0  0  0
  -33.9215  151.1136    7.9938 H   0  0  0  0  0  0  0  0  0  0  0  0
  -33.4424  151.7100    6.0535 H   0  0  0  0  0  0  0  0  0  0  0  0
  -32.6787  153.9568    5.1356 H   0  0  0  0  0  0  0  0  0  0  0  0
  -32.8177  157.2747    5.3767 H   0  0  0  0  0  0  0  0  0  0  0  0
  -32.8410  156.1659    3.9636 H   0  0  0  0  0  0  0  0  0  0  0  0
  -33.8640  157.6424    3.9636 H   0  0  0  0  0  0  0  0  0  0  0  0
  -36.3434  158.4966    6.2324 H   0  0  0  0  0  0  0  0  0  0  0  0
  -35.4111  158.5153    4.6971 H   0  0  0  0  0  0  0  0  0  0  0  0
  -37.1312  157.9977    4.6971 H   0  0  0  0  0  0  0  0  0  0  0  0
  -37.4423  153.2093    7.0651 H   0  0  0  0  0  0  0  0  0  0  0  0
  -37.3253  148.5882    0.3239 H   0  0  0  0  0  0  0  0  0  0  0  0
  -37.9560  148.6650   -2.5950 H   0  0  0  0  0  0  0  0  0  0  0  0
  -37.9770  148.1520   -0.9650 H   0  0  0  0  0  0  0  0  0  0  0  0
  1  2  1  0
  2  3  1  0
  3  4  2  0
  4  5  1  0
  5  6  1  0
  6  7  1  0
  7  8  2  0
  8  9  1  0
  9 10  2  0
 10 11  1  0
 11 12  1  0
 12 13  1  0
 12 14  1  0
 14 15  1  0
 15 16  2  0
 16 17  1  0
 17 18  2  0
 18 19  1  0
 18 20  1  0
 20 21  1  0
 20 22  1  0
 22 23  2  0
 23 24  1  0
 11 25  2  0
  5 26  2  0
 26 27  1  0
 27 28  1  0
 28 29  1  0
 28 30  2  0
 28 31  2  0
 27  2  2  0
 25  7  1  0
 24 14  2  0
 23 17  1  0
  1 32  1  0
  1 33  1  0
  1 34  1  0
  3 35  1  0
  4 36  1  0
  6 37  1  0
  9 38  1  0
 10 39  1  0
 13 40  1  0
 13 41  1  0
 13 42  1  0
 15 43  1  0
 16 44  1  0
 19 45  1  0
 19 46  1  0
 19 47  1  0
 21 48  1  0
 21 49  1  0
 21 50  1  0
 24 51  1  0
 26 52  1  0
 29 53  1  0
 29 54  1  0
M  END
>  <meeko>  (10) 
{"is_sidechain": false}

>  <vina_affinity_kcal_mol>  (10) 
-8.9

>  <pose_rank>  (10) 
10

$$$$
