
     RDKit          3D

 64 69  0  0  0  0  0  0  0  0999 V2000
    7.8293    4.1367   -1.6996 C   0  0  0  0  0  0  0  0  0  0  0  0
    7.7617    2.7346   -1.3671 N   0  0  0  0  0  0  0  0  0  0  0  0
    6.6673    2.0456   -0.9297 C   0  0  0  0  0  0  0  0  0  0  0  0
    7.0880    0.7489   -0.7430 C   0  0  0  0  0  0  0  0  0  0  0  0
    6.3279   -0.4034   -0.2846 C   0  0  0  0  0  0  0  0  0  0  0  0
    4.9489   -0.3918    0.0496 C   0  0  0  0  0  0  0  0  0  0  0  0
    4.6021   -1.6775    0.4225 C   0  0  0  0  0  0  0  0  0  0  0  0
    3.3863   -2.3060    0.8658 C   0  0  0  0  0  0  0  0  0  0  0  0
    2.1453   -1.6836    0.9266 N   0  0  0  0  0  0  0  0  0  0  0  0
    1.0438   -2.3236    1.6727 C   0  0  0  0  0  0  0  0  0  0  0  0
   -0.1062   -1.3418    1.9760 C   0  0  0  0  0  0  0  0  0  0  0  0
   -0.6045   -0.6985    0.7572 N   0  0  0  0  0  0  0  0  0  0  0  0
   -1.9665   -0.6019    0.5703 C   0  0  0  0  0  0  0  0  0  0  0  0
   -2.4369   -0.3773   -0.6652 N   0  0  0  0  0  0  0  0  0  0  0  0
   -3.7724   -0.2582   -0.8202 C   0  0  0  0  0  0  0  0  0  0  0  0
   -4.6940   -0.3510    0.2055 C   0  0  0  0  0  0  0  0  0  0  0  0
   -6.1921   -0.2135   -0.0452 C   0  0  1  0  0  0  0  0  0  0  0  0
   -6.6320   -1.4762   -0.8279 C   0  0  0  0  0  0  0  0  0  0  0  0
   -6.9966   -0.2402    1.1881 N   0  0  0  0  0  0  0  0  0  0  0  0
   -6.5222    1.1132   -0.7662 C   0  0  0  0  0  0  0  0  0  0  0  0
   -7.3387    1.1755   -1.9119 C   0  0  0  0  0  0  0  0  0  0  0  0
   -7.6203    2.3972   -2.5321 C   0  0  0  0  0  0  0  0  0  0  0  0
   -7.0970    3.5719   -2.0116 C   0  0  0  0  0  0  0  0  0  0  0  0
   -7.3691    4.7392   -2.6089 F   0  0  0  0  0  0  0  0  0  0  0  0
   -6.2992    3.5517   -0.8779 C   0  0  0  0  0  0  0  0  0  0  0  0
   -6.0177    2.3328   -0.2564 C   0  0  0  0  0  0  0  0  0  0  0  0
   -4.1087   -0.5842    1.4302 C   0  0  0  0  0  0  0  0  0  0  0  0
   -2.7789   -0.7083    1.6323 N   0  0  0  0  0  0  0  0  0  0  0  0
    0.2444   -0.7528   -0.4316 C   0  0  0  0  0  0  0  0  0  0  0  0
    1.7354   -0.6563   -0.0471 C   0  0  0  0  0  0  0  0  0  0  0  0
    3.4798   -3.5511    1.2450 N   0  0  0  0  0  0  0  0  0  0  0  0
    4.6807   -4.2066    1.1634 C   0  0  0  0  0  0  0  0  0  0  0  0
    5.8063   -3.7273    0.7396 N   0  0  0  0  0  0  0  0  0  0  0  0
    5.7330   -2.4403    0.3755 N   0  0  0  0  0  0  0  0  0  0  0  0
    6.7813   -1.6874   -0.0798 C   0  0  0  0  0  0  0  0  0  0  0  0
    8.4521    0.7623   -1.0977 C   0  0  0  0  0  0  0  0  0  0  0  0
    8.8668    1.9746   -1.4815 N   0  0  0  0  0  0  0  0  0  0  0  0
    6.8483    4.5941   -1.5493 H   0  0  0  0  0  0  0  0  0  0  0  0
    8.5661    4.6107   -1.0464 H   0  0  0  0  0  0  0  0  0  0  0  0
    8.1274    4.2286   -2.7470 H   0  0  0  0  0  0  0  0  0  0  0  0
    5.7102    2.5263   -0.7904 H   0  0  0  0  0  0  0  0  0  0  0  0
    4.2902    0.4641    0.0243 H   0  0  0  0  0  0  0  0  0  0  0  0
    1.4162   -2.7147    2.6273 H   0  0  0  0  0  0  0  0  0  0  0  0
    0.6615   -3.1709    1.0897 H   0  0  0  0  0  0  0  0  0  0  0  0
    0.2538   -0.5578    2.6532 H   0  0  0  0  0  0  0  0  0  0  0  0
   -0.8821   -1.9033    2.5098 H   0  0  0  0  0  0  0  0  0  0  0  0
   -4.0825   -0.0715   -1.8460 H   0  0  0  0  0  0  0  0  0  0  0  0
   -6.1785   -1.5191   -1.8259 H   0  0  0  0  0  0  0  0  0  0  0  0
   -6.3402   -2.3960   -0.3037 H   0  0  0  0  0  0  0  0  0  0  0  0
   -7.7202   -1.5184   -0.9632 H   0  0  0  0  0  0  0  0  0  0  0  0
   -6.7415    0.5334    1.7965 H   0  0  0  0  0  0  0  0  0  0  0  0
   -6.8614   -1.1109    1.6943 H   0  0  0  0  0  0  0  0  0  0  0  0
   -7.7812    0.2811   -2.3421 H   0  0  0  0  0  0  0  0  0  0  0  0
   -8.2509    2.4371   -3.4149 H   0  0  0  0  0  0  0  0  0  0  0  0
   -5.9029    4.4814   -0.4822 H   0  0  0  0  0  0  0  0  0  0  0  0
   -5.3931    2.3432    0.6353 H   0  0  0  0  0  0  0  0  0  0  0  0
   -4.6911   -0.6847    2.3407 H   0  0  0  0  0  0  0  0  0  0  0  0
    0.0207    0.0791   -1.1108 H   0  0  0  0  0  0  0  0  0  0  0  0
    0.0676   -1.6911   -0.9735 H   0  0  0  0  0  0  0  0  0  0  0  0
    1.9313    0.3298    0.3900 H   0  0  0  0  0  0  0  0  0  0  0  0
    2.3196   -0.7434   -0.9701 H   0  0  0  0  0  0  0  0  0  0  0  0
    4.6671   -5.2597    1.4924 H   0  0  0  0  0  0  0  0  0  0  0  0
    7.7559   -2.1387   -0.1960 H   0  0  0  0  0  0  0  0  0  0  0  0
    9.1624   -0.0541   -1.0948 H   0  0  0  0  0  0  0  0  0  0  0  0
  1  2  1  0
  2  3  1  0
  3  4  2  0
  4  5  1  0
  5  6  1  0
  6  7  2  0
  7  8  1  0
  8  9  1  0
  9 10  1  0
 10 11  1  0
 11 12  1  0
 12 13  1  0
 13 14  2  0
 14 15  1  0
 15 16  2  0
 16 17  1  0
 17 18  1  0
 17 19  1  1
 17 20  1  0
 20 21  1  0
 21 22  2  0
 22 23  1  0
 23 24  1  0
 23 25  2  0
 25 26  1  0
 16 27  1  0
 27 28  2  0
 12 29  1  0
 29 30  1  0
  8 31  2  0
 31 32  1  0
 32 33  2  0
 33 34  1  0
 34 35  1  0
  4 36  1  0
 36 37  2  0
 37  2  1  0
 35  5  2  0
 34  7  1  0
 30  9  1  0
 28 13  1  0
 26 20  2  0
  1 38  1  0
  1 39  1  0
  1 40  1  0
  3 41  1  0
  6 42  1  0
 10 43  1  0
 10 44  1  0
 11 45  1  0
 11 46  1  0
 15 47  1  0
 18 48  1  0
 18 49  1  0
 18 50  1  0
 19 51  1  0
 19 52  1  0
 21 53  1  0
 22 54  1  0
 25 55  1  0
 26 56  1  0
 27 57  1  0
 29 58  1  0
 29 59  1  0
 30 60  1  0
 30 61  1  0
 32 62  1  0
 35 63  1  0
 36 64  1  0
M  END
$$$$
