
     RDKit          3D

 64 69  0  0  0  0  0  0  0  0999 V2000
  -34.7340  156.9270    4.7230 C   0  0  0  0  0  0  0  0  0  0  0  0
  -36.0520  156.9630    4.1380 N   0  0  0  0  0  0  0  0  0  0  0  0
  -36.6620  158.0360    3.5530 C   0  0  0  0  0  0  0  0  0  0  0  0
  -37.9000  157.5910    3.1490 C   0  0  0  0  0  0  0  0  0  0  0  0
  -38.9600  158.3230    2.4730 C   0  0  0  0  0  0  0  0  0  0  0  0
  -38.7960  159.0960    1.2940 C   0  0  0  0  0  0  0  0  0  0  0  0
  -40.0340  159.6150    0.9630 C   0  0  0  0  0  0  0  0  0  0  0  0
  -40.5230  160.4620   -0.0920 C   0  0  0  0  0  0  0  0  0  0  0  0
  -39.7680  160.9060   -1.1710 N   0  0  0  0  0  0  0  0  0  0  0  0
  -40.2800  162.0010   -2.0180 C   0  0  0  0  0  0  0  0  0  0  0  0
  -39.1760  162.6280   -2.8940 C   0  0  0  0  0  0  0  0  0  0  0  0
  -38.4880  161.6180   -3.7030 N   0  0  0  0  0  0  0  0  0  0  0  0
  -38.2430  161.8900   -5.0330 C   0  0  0  0  0  0  0  0  0  0  0  0
  -38.6010  160.9860   -5.9560 N   0  0  0  0  0  0  0  0  0  0  0  0
  -38.3270  161.2610   -7.2480 C   0  0  0  0  0  0  0  0  0  0  0  0
  -37.7010  162.4110   -7.6910 C   0  0  0  0  0  0  0  0  0  0  0  0
  -37.4280  162.6590   -9.1710 C   0  0  1  0  0  0  0  0  0  0  0  0
  -36.1540  161.8520   -9.5320 C   0  0  0  0  0  0  0  0  0  0  0  0
  -38.4730  162.1200  -10.0580 N   0  0  0  0  0  0  0  0  0  0  0  0
  -37.3160  164.1690   -9.4770 C   0  0  0  0  0  0  0  0  0  0  0  0
  -38.1470  165.1340   -8.8740 C   0  0  0  0  0  0  0  0  0  0  0  0
  -38.0100  166.4930   -9.1720 C   0  0  0  0  0  0  0  0  0  0  0  0
  -37.0360  166.9080  -10.0680 C   0  0  0  0  0  0  0  0  0  0  0  0
  -36.9080  168.2100  -10.3500 F   0  0  0  0  0  0  0  0  0  0  0  0
  -36.1900  165.9900  -10.6720 C   0  0  0  0  0  0  0  0  0  0  0  0
  -36.3250  164.6310  -10.3750 C   0  0  0  0  0  0  0  0  0  0  0  0
  -37.3760  163.2720   -6.6660 C   0  0  0  0  0  0  0  0  0  0  0  0
  -37.6300  163.0370   -5.3600 N   0  0  0  0  0  0  0  0  0  0  0  0
  -38.6410  160.2180   -3.3120 C   0  0  0  0  0  0  0  0  0  0  0  0
  -38.7060  160.0820   -1.7760 C   0  0  0  0  0  0  0  0  0  0  0  0
  -41.7690  160.8390   -0.0040 N   0  0  0  0  0  0  0  0  0  0  0  0
  -42.5530  160.3900    1.0270 C   0  0  0  0  0  0  0  0  0  0  0  0
  -42.2010  159.5990    1.9880 N   0  0  0  0  0  0  0  0  0  0  0  0
  -40.9160  159.2270    1.9290 N   0  0  0  0  0  0  0  0  0  0  0  0
  -40.2850  158.4180    2.8350 C   0  0  0  0  0  0  0  0  0  0  0  0
  -37.9360  156.2360    3.5360 C   0  0  0  0  0  0  0  0  0  0  0  0
  -36.8070  155.8490    4.1400 N   0  0  0  0  0  0  0  0  0  0  0  0
  -34.8194  156.9293    5.8197 H   0  0  0  0  0  0  0  0  0  0  0  0
  -34.2133  156.0143    4.3977 H   0  0  0  0  0  0  0  0  0  0  0  0
  -34.1642  157.8099    4.3977 H   0  0  0  0  0  0  0  0  0  0  0  0
  -36.2486  159.0479    3.4301 H   0  0  0  0  0  0  0  0  0  0  0  0
  -37.8562  159.2533    0.7444 H   0  0  0  0  0  0  0  0  0  0  0  0
  -41.0682  161.6023   -2.6736 H   0  0  0  0  0  0  0  0  0  0  0  0
  -40.6696  162.7865   -1.3538 H   0  0  0  0  0  0  0  0  0  0  0  0
  -39.6318  163.3717   -3.5641 H   0  0  0  0  0  0  0  0  0  0  0  0
  -38.4360  163.0979   -2.2295 H   0  0  0  0  0  0  0  0  0  0  0  0
  -38.6228  160.5172   -8.0025 H   0  0  0  0  0  0  0  0  0  0  0  0
  -35.6488  161.5320   -8.6088 H   0  0  0  0  0  0  0  0  0  0  0  0
  -36.4353  160.9670  -10.1217 H   0  0  0  0  0  0  0  0  0  0  0  0
  -35.4741  162.4845  -10.1217 H   0  0  0  0  0  0  0  0  0  0  0  0
  -38.5120  161.1080   -9.9870 H   0  0  0  0  0  0  0  0  0  0  0  0
  -38.2960  162.3730  -11.0270 H   0  0  0  0  0  0  0  0  0  0  0  0
  -38.9165  164.8126   -8.1567 H   0  0  0  0  0  0  0  0  0  0  0  0
  -38.6729  167.2312   -8.6971 H   0  0  0  0  0  0  0  0  0  0  0  0
  -35.4187  166.3288  -11.3793 H   0  0  0  0  0  0  0  0  0  0  0  0
  -35.6471  163.9059  -10.8490 H   0  0  0  0  0  0  0  0  0  0  0  0
  -36.8754  164.2155   -6.9288 H   0  0  0  0  0  0  0  0  0  0  0  0
  -39.5692  159.8209   -3.7488 H   0  0  0  0  0  0  0  0  0  0  0  0
  -37.7722  159.6522   -3.6796 H   0  0  0  0  0  0  0  0  0  0  0  0
  -38.8939  159.0277   -1.5248 H   0  0  0  0  0  0  0  0  0  0  0  0
  -37.7451  160.4343   -1.3727 H   0  0  0  0  0  0  0  0  0  0  0  0
  -43.5955  160.7408    1.0383 H   0  0  0  0  0  0  0  0  0  0  0  0
  -40.7546  157.9290    3.7012 H   0  0  0  0  0  0  0  0  0  0  0  0
  -38.7953  155.5720    3.3611 H   0  0  0  0  0  0  0  0  0  0  0  0
  1  2  1  0
  2  3  1  0
  3  4  2  0
  4  5  1  0
  5  6  1  0
  6  7  2  0
  7  8  1  0
  8  9  1  0
  9 10  1  0
 10 11  1  0
 11 12  1  0
 12 13  1  0
 13 14  2  0
 14 15  1  0
 15 16  2  0
 16 17  1  0
 17 18  1  0
 17 19  1  6
 17 20  1  0
 20 21  1  0
 21 22  2  0
 22 23  1  0
 23 24  1  0
 23 25  2  0
 25 26  1  0
 16 27  1  0
 27 28  2  0
 12 29  1  0
 29 30  1  0
  8 31  2  0
 31 32  1  0
 32 33  2  0
 33 34  1  0
 34 35  1  0
  4 36  1  0
 36 37  2  0
 37  2  1  0
 35  5  2  0
 34  7  1  0
 30  9  1  0
 28 13  1  0
 26 20  2  0
  1 38  1  0
  1 39  1  0
  1 40  1  0
  3 41  1  0
  6 42  1  0
 10 43  1  0
 10 44  1  0
 11 45  1  0
 11 46  1  0
 15 47  1  0
 18 48  1  0
 18 49  1  0
 18 50  1  0
 19 51  1  0
 19 52  1  0
 21 53  1  0
 22 54  1  0
 25 55  1  0
 26 56  1  0
 27 57  1  0
 29 58  1  0
 29 59  1  0
 30 60  1  0
 30 61  1  0
 32 62  1  0
 35 63  1  0
 36 64  1  0
M  END
>  <meeko>  (1) 
{"is_sidechain": false}

>  <vina_affinity_kcal_mol>  (1) 
-9.876

>  <pose_rank>  (1) 
1

$$$$

     RDKit          3D

 64 69  0  0  0  0  0  0  0  0999 V2000
  -36.6600  155.0280    5.1230 C   0  0  0  0  0  0  0  0  0  0  0  0
  -37.0270  156.1760    4.3300 N   0  0  0  0  0  0  0  0  0  0  0  0
  -38.2620  156.4610    3.8200 C   0  0  0  0  0  0  0  0  0  0  0  0
  -38.1220  157.6490    3.1390 C   0  0  0  0  0  0  0  0  0  0  0  0
  -39.1230  158.4060    2.4050 C   0  0  0  0  0  0  0  0  0  0  0  0
  -38.8830  159.1380    1.2120 C   0  0  0  0  0  0  0  0  0  0  0  0
  -40.0850  159.7010    0.8220 C   0  0  0  0  0  0  0  0  0  0  0  0
  -40.4980  160.5380   -0.2730 C   0  0  0  0  0  0  0  0  0  0  0  0
  -39.6860  160.9180   -1.3340 N   0  0  0  0  0  0  0  0  0  0  0  0
  -40.1180  162.0100   -2.2290 C   0  0  0  0  0  0  0  0  0  0  0  0
  -38.9570  162.5630   -3.0800 C   0  0  0  0  0  0  0  0  0  0  0  0
  -38.2870  161.5020   -3.8360 N   0  0  0  0  0  0  0  0  0  0  0  0
  -37.9820  161.7260   -5.1620 C   0  0  0  0  0  0  0  0  0  0  0  0
  -38.5710  160.9680   -6.0980 N   0  0  0  0  0  0  0  0  0  0  0  0
  -38.2380  161.1860   -7.3880 C   0  0  0  0  0  0  0  0  0  0  0  0
  -37.3300  162.1360   -7.8150 C   0  0  0  0  0  0  0  0  0  0  0  0
  -37.0060  162.3320   -9.2930 C   0  0  1  0  0  0  0  0  0  0  0  0
  -37.9760  163.4190   -9.8220 C   0  0  0  0  0  0  0  0  0  0  0  0
  -35.6620  162.8840   -9.5300 N   0  0  0  0  0  0  0  0  0  0  0  0
  -37.0850  160.9970  -10.0670 C   0  0  0  0  0  0  0  0  0  0  0  0
  -37.5380  160.9130  -11.3990 C   0  0  0  0  0  0  0  0  0  0  0  0
  -37.5880  159.6870  -12.0680 C   0  0  0  0  0  0  0  0  0  0  0  0
  -37.1790  158.5300  -11.4220 C   0  0  0  0  0  0  0  0  0  0  0  0
  -37.2280  157.3580  -12.0670 F   0  0  0  0  0  0  0  0  0  0  0  0
  -36.7150  158.5740  -10.1150 C   0  0  0  0  0  0  0  0  0  0  0  0
  -36.6630  159.7990   -9.4450 C   0  0  0  0  0  0  0  0  0  0  0  0
  -36.7850  162.8590   -6.7780 C   0  0  0  0  0  0  0  0  0  0  0  0
  -37.0880  162.6740   -5.4740 N   0  0  0  0  0  0  0  0  0  0  0  0
  -38.5150  160.1220   -3.4130 C   0  0  0  0  0  0  0  0  0  0  0  0
  -38.6410  160.0320   -1.8780 C   0  0  0  0  0  0  0  0  0  0  0  0
  -41.7280  160.9720   -0.2400 N   0  0  0  0  0  0  0  0  0  0  0  0
  -42.5680  160.5860    0.7730 C   0  0  0  0  0  0  0  0  0  0  0  0
  -42.2860  159.8080    1.7670 N   0  0  0  0  0  0  0  0  0  0  0  0
  -41.0170  159.3790    1.7650 N   0  0  0  0  0  0  0  0  0  0  0  0
  -40.4550  158.5700    2.7150 C   0  0  0  0  0  0  0  0  0  0  0  0
  -36.7660  157.9970    3.3020 C   0  0  0  0  0  0  0  0  0  0  0  0
  -36.0940  157.0980    4.0310 N   0  0  0  0  0  0  0  0  0  0  0  0
  -36.7403  155.2792    6.1909 H   0  0  0  0  0  0  0  0  0  0  0  0
  -37.3354  154.1913    4.8914 H   0  0  0  0  0  0  0  0  0  0  0  0
  -35.6244  154.7382    4.8914 H   0  0  0  0  0  0  0  0  0  0  0  0
  -39.1793  155.8641    3.9308 H   0  0  0  0  0  0  0  0  0  0  0  0
  -37.9183  159.2388    0.6932 H   0  0  0  0  0  0  0  0  0  0  0  0
  -40.8992  161.6274   -2.9023 H   0  0  0  0  0  0  0  0  0  0  0  0
  -40.4955  162.8304   -1.6010 H   0  0  0  0  0  0  0  0  0  0  0  0
  -39.3550  163.3069   -3.7858 H   0  0  0  0  0  0  0  0  0  0  0  0
  -38.2207  163.0184   -2.4014 H   0  0  0  0  0  0  0  0  0  0  0  0
  -38.7240  160.5632   -8.1535 H   0  0  0  0  0  0  0  0  0  0  0  0
  -38.4411  163.9403   -8.9723 H   0  0  0  0  0  0  0  0  0  0  0  0
  -37.4175  164.1421  -10.4346 H   0  0  0  0  0  0  0  0  0  0  0  0
  -38.7578  162.9461  -10.4346 H   0  0  0  0  0  0  0  0  0  0  0  0
  -35.3460  162.6600  -10.4700 H   0  0  0  0  0  0  0  0  0  0  0  0
  -34.9910  162.5100   -8.8640 H   0  0  0  0  0  0  0  0  0  0  0  0
  -37.8574  161.8273  -11.9205 H   0  0  0  0  0  0  0  0  0  0  0  0
  -37.9512  159.6398  -13.1052 H   0  0  0  0  0  0  0  0  0  0  0  0
  -36.3907  157.6519   -9.6104 H   0  0  0  0  0  0  0  0  0  0  0  0
  -36.2860  159.8323   -8.4122 H   0  0  0  0  0  0  0  0  0  0  0  0
  -36.0527  163.6409   -7.0279 H   0  0  0  0  0  0  0  0  0  0  0  0
  -39.4434  159.7527   -3.8731 H   0  0  0  0  0  0  0  0  0  0  0  0
  -37.6588  159.5098   -3.7325 H   0  0  0  0  0  0  0  0  0  0  0  0
  -38.8846  158.9943   -1.6063 H   0  0  0  0  0  0  0  0  0  0  0  0
  -37.6804  160.3534   -1.4491 H   0  0  0  0  0  0  0  0  0  0  0  0
  -43.5938  160.9813    0.7361 H   0  0  0  0  0  0  0  0  0  0  0  0
  -40.9765  158.1275    3.5766 H   0  0  0  0  0  0  0  0  0  0  0  0
  -36.3115  158.9046    2.8781 H   0  0  0  0  0  0  0  0  0  0  0  0
  1  2  1  0
  2  3  1  0
  3  4  2  0
  4  5  1  0
  5  6  1  0
  6  7  2  0
  7  8  1  0
  8  9  1  0
  9 10  1  0
 10 11  1  0
 11 12  1  0
 12 13  1  0
 13 14  2  0
 14 15  1  0
 15 16  2  0
 16 17  1  0
 17 18  1  0
 17 19  1  1
 17 20  1  0
 20 21  1  0
 21 22  2  0
 22 23  1  0
 23 24  1  0
 23 25  2  0
 25 26  1  0
 16 27  1  0
 27 28  2  0
 12 29  1  0
 29 30  1  0
  8 31  2  0
 31 32  1  0
 32 33  2  0
 33 34  1  0
 34 35  1  0
  4 36  1  0
 36 37  2  0
 37  2  1  0
 35  5  2  0
 34  7  1  0
 30  9  1  0
 28 13  1  0
 26 20  2  0
  1 38  1  0
  1 39  1  0
  1 40  1  0
  3 41  1  0
  6 42  1  0
 10 43  1  0
 10 44  1  0
 11 45  1  0
 11 46  1  0
 15 47  1  0
 18 48  1  0
 18 49  1  0
 18 50  1  0
 19 51  1  0
 19 52  1  0
 21 53  1  0
 22 54  1  0
 25 55  1  0
 26 56  1  0
 27 57  1  0
 29 58  1  0
 29 59  1  0
 30 60  1  0
 30 61  1  0
 32 62  1  0
 35 63  1  0
 36 64  1  0
M  END
>  <meeko>  (2) 
{"is_sidechain": false}

>  <vina_affinity_kcal_mol>  (2) 
-9.696

>  <pose_rank>  (2) 
2

$$$$

     RDKit          3D

 64 69  0  0  0  0  0  0  0  0999 V2000
  -36.5080  158.2810    6.4950 C   0  0  0  0  0  0  0  0  0  0  0  0
  -36.7420  156.8950    6.1730 N   0  0  0  0  0  0  0  0  0  0  0  0
  -36.2650  155.8040    6.8430 C   0  0  0  0  0  0  0  0  0  0  0  0
  -36.7480  154.7070    6.1670 C   0  0  0  0  0  0  0  0  0  0  0  0
  -36.5450  153.2950    6.4510 C   0  0  0  0  0  0  0  0  0  0  0  0
  -37.2080  152.2250    5.7950 C   0  0  0  0  0  0  0  0  0  0  0  0
  -36.7310  151.0460    6.3380 C   0  0  0  0  0  0  0  0  0  0  0  0
  -37.0010  149.6510    6.1130 C   0  0  0  0  0  0  0  0  0  0  0  0
  -37.8320  149.1510    5.1180 N   0  0  0  0  0  0  0  0  0  0  0  0
  -38.2680  147.7420    5.1710 C   0  0  0  0  0  0  0  0  0  0  0  0
  -39.4740  147.4670    4.2500 C   0  0  0  0  0  0  0  0  0  0  0  0
  -39.2060  147.8800    2.8700 N   0  0  0  0  0  0  0  0  0  0  0  0
  -39.5600  147.0290    1.8440 C   0  0  0  0  0  0  0  0  0  0  0  0
  -38.5970  146.5230    1.0600 N   0  0  0  0  0  0  0  0  0  0  0  0
  -38.9690  145.7150    0.0460 C   0  0  0  0  0  0  0  0  0  0  0  0
  -40.2750  145.3700   -0.2460 C   0  0  0  0  0  0  0  0  0  0  0  0
  -40.6220  144.4430   -1.4070 C   0  0  1  0  0  0  0  0  0  0  0  0
  -39.3740  143.5590   -1.6610 C   0  0  0  0  0  0  0  0  0  0  0  0
  -41.6970  143.4880   -1.0930 N   0  0  0  0  0  0  0  0  0  0  0  0
  -41.0810  145.2430   -2.6470 C   0  0  0  0  0  0  0  0  0  0  0  0
  -40.5020  146.4710   -3.0200 C   0  0  0  0  0  0  0  0  0  0  0  0
  -40.9410  147.1610   -4.1540 C   0  0  0  0  0  0  0  0  0  0  0  0
  -41.9580  146.6310   -4.9340 C   0  0  0  0  0  0  0  0  0  0  0  0
  -42.3750  147.2950   -6.0190 F   0  0  0  0  0  0  0  0  0  0  0  0
  -42.5440  145.4180   -4.6060 C   0  0  0  0  0  0  0  0  0  0  0  0
  -42.1060  144.7260   -3.4740 C   0  0  0  0  0  0  0  0  0  0  0  0
  -41.1840  145.9400    0.6170 C   0  0  0  0  0  0  0  0  0  0  0  0
  -40.8570  146.7550    1.6430 N   0  0  0  0  0  0  0  0  0  0  0  0
  -38.0880  148.7940    2.6410 C   0  0  0  0  0  0  0  0  0  0  0  0
  -37.9580  149.8020    3.8010 C   0  0  0  0  0  0  0  0  0  0  0  0
  -36.4200  148.8090    6.9220 N   0  0  0  0  0  0  0  0  0  0  0  0
  -35.5640  149.2650    7.8920 C   0  0  0  0  0  0  0  0  0  0  0  0
  -35.2390  150.4940    8.1310 N   0  0  0  0  0  0  0  0  0  0  0  0
  -35.8520  151.3740    7.3280 N   0  0  0  0  0  0  0  0  0  0  0  0
  -35.7070  152.7330    7.3880 C   0  0  0  0  0  0  0  0  0  0  0  0
  -37.5060  155.2450    5.1080 C   0  0  0  0  0  0  0  0  0  0  0  0
  -37.5060  156.5830    5.1090 N   0  0  0  0  0  0  0  0  0  0  0  0
  -36.4871  158.4051    7.5878 H   0  0  0  0  0  0  0  0  0  0  0  0
  -35.5436  158.5981    6.0714 H   0  0  0  0  0  0  0  0  0  0  0  0
  -37.3148  158.8971    6.0714 H   0  0  0  0  0  0  0  0  0  0  0  0
  -35.6263  155.8028    7.7386 H   0  0  0  0  0  0  0  0  0  0  0  0
  -37.9630  152.3168    5.0003 H   0  0  0  0  0  0  0  0  0  0  0  0
  -37.4307  147.1007    4.8583 H   0  0  0  0  0  0  0  0  0  0  0  0
  -38.5771  147.5243    6.2040 H   0  0  0  0  0  0  0  0  0  0  0  0
  -39.6946  146.3894    4.2634 H   0  0  0  0  0  0  0  0  0  0  0  0
  -40.3301  148.0487    4.6224 H   0  0  0  0  0  0  0  0  0  0  0  0
  -38.1761  145.3011   -0.5943 H   0  0  0  0  0  0  0  0  0  0  0  0
  -38.9402  143.2517   -0.6980 H   0  0  0  0  0  0  0  0  0  0  0  0
  -39.6673  142.6661   -2.2326 H   0  0  0  0  0  0  0  0  0  0  0  0
  -38.6290  144.1319   -2.2326 H   0  0  0  0  0  0  0  0  0  0  0  0
  -42.5940  143.8460   -1.4080 H   0  0  0  0  0  0  0  0  0  0  0  0
  -41.7500  143.3120   -0.0930 H   0  0  0  0  0  0  0  0  0  0  0  0
  -39.6910  146.8944   -2.4093 H   0  0  0  0  0  0  0  0  0  0  0  0
  -40.4808  148.1221   -4.4270 H   0  0  0  0  0  0  0  0  0  0  0  0
  -43.3477  145.0036   -5.2323 H   0  0  0  0  0  0  0  0  0  0  0  0
  -42.5672  143.7600   -3.2207 H   0  0  0  0  0  0  0  0  0  0  0  0
  -42.2495  145.7162    0.4600 H   0  0  0  0  0  0  0  0  0  0  0  0
  -37.1574  148.2128    2.5623 H   0  0  0  0  0  0  0  0  0  0  0  0
  -38.2722  149.3500    1.7099 H   0  0  0  0  0  0  0  0  0  0  0  0
  -37.0652  150.4211    3.6291 H   0  0  0  0  0  0  0  0  0  0  0  0
  -38.8781  150.4045    3.8183 H   0  0  0  0  0  0  0  0  0  0  0  0
  -35.1036  148.5022    8.5371 H   0  0  0  0  0  0  0  0  0  0  0  0
  -35.0374  153.2815    8.0668 H   0  0  0  0  0  0  0  0  0  0  0  0
  -38.0379  154.6337    4.3641 H   0  0  0  0  0  0  0  0  0  0  0  0
  1  2  1  0
  2  3  1  0
  3  4  2  0
  4  5  1  0
  5  6  1  0
  6  7  2  0
  7  8  1  0
  8  9  1  0
  9 10  1  0
 10 11  1  0
 11 12  1  0
 12 13  1  0
 13 14  2  0
 14 15  1  0
 15 16  2  0
 16 17  1  0
 17 18  1  0
 17 19  1  1
 17 20  1  0
 20 21  1  0
 21 22  2  0
 22 23  1  0
 23 24  1  0
 23 25  2  0
 25 26  1  0
 16 27  1  0
 27 28  2  0
 12 29  1  0
 29 30  1  0
  8 31  2  0
 31 32  1  0
 32 33  2  0
 33 34  1  0
 34 35  1  0
  4 36  1  0
 36 37  2  0
 37  2  1  0
 35  5  2  0
 34  7  1  0
 30  9  1  0
 28 13  1  0
 26 20  2  0
  1 38  1  0
  1 39  1  0
  1 40  1  0
  3 41  1  0
  6 42  1  0
 10 43  1  0
 10 44  1  0
 11 45  1  0
 11 46  1  0
 15 47  1  0
 18 48  1  0
 18 49  1  0
 18 50  1  0
 19 51  1  0
 19 52  1  0
 21 53  1  0
 22 54  1  0
 25 55  1  0
 26 56  1  0
 27 57  1  0
 29 58  1  0
 29 59  1  0
 30 60  1  0
 30 61  1  0
 32 62  1  0
 35 63  1  0
 36 64  1  0
M  END
>  <meeko>  (3) 
{"is_sidechain": false}

>  <vina_affinity_kcal_mol>  (3) 
-9.292

>  <pose_rank>  (3) 
3

$$$$

     RDKit          3D

 64 69  0  0  0  0  0  0  0  0999 V2000
  -41.5670  145.9610   -7.9560 C   0  0  0  0  0  0  0  0  0  0  0  0
  -41.8070  146.0840   -6.5390 N   0  0  0  0  0  0  0  0  0  0  0  0
  -41.5130  145.1640   -5.5740 C   0  0  0  0  0  0  0  0  0  0  0  0
  -41.9250  145.7220   -4.3840 C   0  0  0  0  0  0  0  0  0  0  0  0
  -41.8510  145.1700   -3.0410 C   0  0  0  0  0  0  0  0  0  0  0  0
  -40.9480  145.5950   -2.0310 C   0  0  0  0  0  0  0  0  0  0  0  0
  -41.2030  144.8380   -0.9010 C   0  0  0  0  0  0  0  0  0  0  0  0
  -40.6420  144.7820    0.4220 C   0  0  0  0  0  0  0  0  0  0  0  0
  -39.6740  145.6490    0.9140 N   0  0  0  0  0  0  0  0  0  0  0  0
  -38.9630  145.3150    2.1640 C   0  0  0  0  0  0  0  0  0  0  0  0
  -37.6780  146.1470    2.3460 C   0  0  0  0  0  0  0  0  0  0  0  0
  -37.9490  147.5850    2.2660 N   0  0  0  0  0  0  0  0  0  0  0  0
  -37.3730  148.4200    3.2010 C   0  0  0  0  0  0  0  0  0  0  0  0
  -36.0600  148.3090    3.4470 N   0  0  0  0  0  0  0  0  0  0  0  0
  -35.5230  149.1160    4.3860 C   0  0  0  0  0  0  0  0  0  0  0  0
  -36.2310  150.0520    5.1150 C   0  0  0  0  0  0  0  0  0  0  0  0
  -35.5560  150.9380    6.1580 C   0  0  1  0  0  0  0  0  0  0  0  0
  -35.7620  150.2480    7.5300 C   0  0  0  0  0  0  0  0  0  0  0  0
  -34.0940  151.0210    5.9980 N   0  0  0  0  0  0  0  0  0  0  0  0
  -36.0950  152.3840    6.1010 C   0  0  0  0  0  0  0  0  0  0  0  0
  -37.2960  152.7770    6.7240 C   0  0  0  0  0  0  0  0  0  0  0  0
  -37.7470  154.0980    6.6560 C   0  0  0  0  0  0  0  0  0  0  0  0
  -37.0020  155.0470    5.9710 C   0  0  0  0  0  0  0  0  0  0  0  0
  -37.4380  156.3120    5.9080 F   0  0  0  0  0  0  0  0  0  0  0  0
  -35.8090  154.7020    5.3550 C   0  0  0  0  0  0  0  0  0  0  0  0
  -35.3550  153.3830    5.4240 C   0  0  0  0  0  0  0  0  0  0  0  0
  -37.5680  150.0870    4.7860 C   0  0  0  0  0  0  0  0  0  0  0  0
  -38.1480  149.2970    3.8560 N   0  0  0  0  0  0  0  0  0  0  0  0
  -39.2150  148.0040    1.6690 C   0  0  0  0  0  0  0  0  0  0  0  0
  -39.6110  147.0650    0.5100 C   0  0  0  0  0  0  0  0  0  0  0  0
  -41.0830  143.8320    1.2000 N   0  0  0  0  0  0  0  0  0  0  0  0
  -42.0660  142.9830    0.7600 C   0  0  0  0  0  0  0  0  0  0  0  0
  -42.6470  142.9930   -0.3960 N   0  0  0  0  0  0  0  0  0  0  0  0
  -42.1840  143.9440   -1.2170 N   0  0  0  0  0  0  0  0  0  0  0  0
  -42.6060  144.1530   -2.5020 C   0  0  0  0  0  0  0  0  0  0  0  0
  -42.4500  146.9790   -4.7430 C   0  0  0  0  0  0  0  0  0  0  0  0
  -42.3790  147.2040   -6.0600 N   0  0  0  0  0  0  0  0  0  0  0  0
  -40.5993  145.4651   -8.1223 H   0  0  0  0  0  0  0  0  0  0  0  0
  -42.3690  145.3628   -8.4132 H   0  0  0  0  0  0  0  0  0  0  0  0
  -41.5497  146.9614   -8.4132 H   0  0  0  0  0  0  0  0  0  0  0  0
  -41.0436  144.1796   -5.7174 H   0  0  0  0  0  0  0  0  0  0  0  0
  -40.1855  146.3818   -2.1289 H   0  0  0  0  0  0  0  0  0  0  0  0
  -39.6331  145.5083    3.0147 H   0  0  0  0  0  0  0  0  0  0  0  0
  -38.6734  144.2550    2.1137 H   0  0  0  0  0  0  0  0  0  0  0  0
  -37.2427  145.9203    3.3304 H   0  0  0  0  0  0  0  0  0  0  0  0
  -36.9807  145.8834    1.5372 H   0  0  0  0  0  0  0  0  0  0  0  0
  -34.4453  149.0219    4.5850 H   0  0  0  0  0  0  0  0  0  0  0  0
  -35.5480  150.9646    8.3366 H   0  0  0  0  0  0  0  0  0  0  0  0
  -36.8027  149.9017    7.6137 H   0  0  0  0  0  0  0  0  0  0  0  0
  -35.0815  149.3878    7.6137 H   0  0  0  0  0  0  0  0  0  0  0  0
  -33.7280  150.1530    5.6180 H   0  0  0  0  0  0  0  0  0  0  0  0
  -33.6400  151.2040    6.8890 H   0  0  0  0  0  0  0  0  0  0  0  0
  -37.8890  152.0311    7.2735 H   0  0  0  0  0  0  0  0  0  0  0  0
  -38.6901  154.3846    7.1443 H   0  0  0  0  0  0  0  0  0  0  0  0
  -35.2241  155.4616    4.8157 H   0  0  0  0  0  0  0  0  0  0  0  0
  -34.4030  153.1150    4.9425 H   0  0  0  0  0  0  0  0  0  0  0  0
  -38.2075  150.8076    5.3169 H   0  0  0  0  0  0  0  0  0  0  0  0
  -40.0016  147.9801    2.4375 H   0  0  0  0  0  0  0  0  0  0  0  0
  -39.0980  149.0235    1.2729 H   0  0  0  0  0  0  0  0  0  0  0  0
  -40.6002  147.3674    0.1358 H   0  0  0  0  0  0  0  0  0  0  0  0
  -38.8354  147.1526   -0.2651 H   0  0  0  0  0  0  0  0  0  0  0  0
  -42.3968  142.2085    1.4676 H   0  0  0  0  0  0  0  0  0  0  0  0
  -43.4091  143.6036   -3.0151 H   0  0  0  0  0  0  0  0  0  0  0  0
  -42.8709  147.6950   -4.0217 H   0  0  0  0  0  0  0  0  0  0  0  0
  1  2  1  0
  2  3  1  0
  3  4  2  0
  4  5  1  0
  5  6  1  0
  6  7  2  0
  7  8  1  0
  8  9  1  0
  9 10  1  0
 10 11  1  0
 11 12  1  0
 12 13  1  0
 13 14  2  0
 14 15  1  0
 15 16  2  0
 16 17  1  0
 17 18  1  0
 17 19  1  6
 17 20  1  0
 20 21  1  0
 21 22  2  0
 22 23  1  0
 23 24  1  0
 23 25  2  0
 25 26  1  0
 16 27  1  0
 27 28  2  0
 12 29  1  0
 29 30  1  0
  8 31  2  0
 31 32  1  0
 32 33  2  0
 33 34  1  0
 34 35  1  0
  4 36  1  0
 36 37  2  0
 37  2  1  0
 35  5  2  0
 34  7  1  0
 30  9  1  0
 28 13  1  0
 26 20  2  0
  1 38  1  0
  1 39  1  0
  1 40  1  0
  3 41  1  0
  6 42  1  0
 10 43  1  0
 10 44  1  0
 11 45  1  0
 11 46  1  0
 15 47  1  0
 18 48  1  0
 18 49  1  0
 18 50  1  0
 19 51  1  0
 19 52  1  0
 21 53  1  0
 22 54  1  0
 25 55  1  0
 26 56  1  0
 27 57  1  0
 29 58  1  0
 29 59  1  0
 30 60  1  0
 30 61  1  0
 32 62  1  0
 35 63  1  0
 36 64  1  0
M  END
>  <meeko>  (4) 
{"is_sidechain": false}

>  <vina_affinity_kcal_mol>  (4) 
-9.131

>  <pose_rank>  (4) 
4

$$$$

     RDKit          3D

 64 69  0  0  0  0  0  0  0  0999 V2000
  -41.7120  145.7380   -6.6920 C   0  0  0  0  0  0  0  0  0  0  0  0
  -41.8270  145.0290   -5.4400 N   0  0  0  0  0  0  0  0  0  0  0  0
  -42.2470  145.5360   -4.2440 C   0  0  0  0  0  0  0  0  0  0  0  0
  -42.1850  144.4920   -3.3500 C   0  0  0  0  0  0  0  0  0  0  0  0
  -42.5180  144.4790   -1.9340 C   0  0  0  0  0  0  0  0  0  0  0  0
  -41.6580  144.9010   -0.8880 C   0  0  0  0  0  0  0  0  0  0  0  0
  -42.3450  144.7460    0.3030 C   0  0  0  0  0  0  0  0  0  0  0  0
  -42.0320  144.9850    1.6860 C   0  0  0  0  0  0  0  0  0  0  0  0
  -40.8620  145.5770    2.1470 N   0  0  0  0  0  0  0  0  0  0  0  0
  -40.5200  145.4970    3.5810 C   0  0  0  0  0  0  0  0  0  0  0  0
  -39.0400  145.8390    3.8490 C   0  0  0  0  0  0  0  0  0  0  0  0
  -38.6780  147.1470    3.2960 N   0  0  0  0  0  0  0  0  0  0  0  0
  -37.9320  148.0090    4.0730 C   0  0  0  0  0  0  0  0  0  0  0  0
  -36.8140  148.5420    3.5580 N   0  0  0  0  0  0  0  0  0  0  0  0
  -36.0860  149.3600    4.3450 C   0  0  0  0  0  0  0  0  0  0  0  0
  -36.4080  149.6910    5.6480 C   0  0  0  0  0  0  0  0  0  0  0  0
  -35.5400  150.6310    6.4780 C   0  0  1  0  0  0  0  0  0  0  0  0
  -35.6190  150.1330    7.9430 C   0  0  0  0  0  0  0  0  0  0  0  0
  -34.1090  150.5600    6.1370 N   0  0  0  0  0  0  0  0  0  0  0  0
  -35.9720  152.1030    6.2960 C   0  0  0  0  0  0  0  0  0  0  0  0
  -37.2030  152.6010    6.7650 C   0  0  0  0  0  0  0  0  0  0  0  0
  -37.5540  153.9420    6.5870 C   0  0  0  0  0  0  0  0  0  0  0  0
  -36.6780  154.8060    5.9460 C   0  0  0  0  0  0  0  0  0  0  0  0
  -37.0190  156.0900    5.7770 F   0  0  0  0  0  0  0  0  0  0  0  0
  -35.4520  154.3560    5.4810 C   0  0  0  0  0  0  0  0  0  0  0  0
  -35.0980  153.0170    5.6590 C   0  0  0  0  0  0  0  0  0  0  0  0
  -37.5720  149.0940    6.0780 C   0  0  0  0  0  0  0  0  0  0  0  0
  -38.3310  148.2670    5.3260 N   0  0  0  0  0  0  0  0  0  0  0  0
  -39.5690  147.7300    2.2960 C   0  0  0  0  0  0  0  0  0  0  0  0
  -40.1670  146.6340    1.3890 C   0  0  0  0  0  0  0  0  0  0  0  0
  -42.9220  144.5990    2.5580 N   0  0  0  0  0  0  0  0  0  0  0  0
  -44.1040  144.0450    2.1370 C   0  0  0  0  0  0  0  0  0  0  0  0
  -44.4760  143.8350    0.9160 N   0  0  0  0  0  0  0  0  0  0  0  0
  -43.5590  144.1970    0.0090 N   0  0  0  0  0  0  0  0  0  0  0  0
  -43.6890  144.0570   -1.3460 C   0  0  0  0  0  0  0  0  0  0  0  0
  -41.7170  143.4000   -4.1080 C   0  0  0  0  0  0  0  0  0  0  0  0
  -41.4980  143.7250   -5.3870 N   0  0  0  0  0  0  0  0  0  0  0  0
  -41.5388  146.8061   -6.4940 H   0  0  0  0  0  0  0  0  0  0  0  0
  -40.8682  145.3303   -7.2681 H   0  0  0  0  0  0  0  0  0  0  0  0
  -42.6414  145.6179   -7.2681 H   0  0  0  0  0  0  0  0  0  0  0  0
  -42.5689  146.5674   -4.0375 H   0  0  0  0  0  0  0  0  0  0  0  0
  -40.6324  145.2819   -1.0027 H   0  0  0  0  0  0  0  0  0  0  0  0
  -41.1529  146.2052    4.1358 H   0  0  0  0  0  0  0  0  0  0  0  0
  -40.6916  144.4618    3.9110 H   0  0  0  0  0  0  0  0  0  0  0  0
  -38.8678  145.8511    4.9354 H   0  0  0  0  0  0  0  0  0  0  0  0
  -38.4173  145.0754    3.3601 H   0  0  0  0  0  0  0  0  0  0  0  0
  -35.1698  149.7953    3.9194 H   0  0  0  0  0  0  0  0  0  0  0  0
  -35.4841  150.9837    8.6272 H   0  0  0  0  0  0  0  0  0  0  0  0
  -36.6016  149.6716    8.1209 H   0  0  0  0  0  0  0  0  0  0  0  0
  -34.8275  149.3902    8.1209 H   0  0  0  0  0  0  0  0  0  0  0  0
  -33.9660  149.9710    5.3230 H   0  0  0  0  0  0  0  0  0  0  0  0
  -33.5670  150.1840    6.9110 H   0  0  0  0  0  0  0  0  0  0  0  0
  -37.8998  151.9233    7.2800 H   0  0  0  0  0  0  0  0  0  0  0  0
  -38.5227  154.3116    6.9543 H   0  0  0  0  0  0  0  0  0  0  0  0
  -34.7631  155.0487    4.9755 H   0  0  0  0  0  0  0  0  0  0  0  0
  -34.1206  152.6652    5.2971 H   0  0  0  0  0  0  0  0  0  0  0  0
  -37.9069  149.3049    7.1043 H   0  0  0  0  0  0  0  0  0  0  0  0
  -40.3860  148.2608    2.8067 H   0  0  0  0  0  0  0  0  0  0  0  0
  -38.9904  148.4270    1.6720 H   0  0  0  0  0  0  0  0  0  0  0  0
  -40.8856  147.1021    0.7002 H   0  0  0  0  0  0  0  0  0  0  0  0
  -39.3330  146.1599    0.8509 H   0  0  0  0  0  0  0  0  0  0  0  0
  -44.8129  143.7467    2.9234 H   0  0  0  0  0  0  0  0  0  0  0  0
  -44.5750  143.6739   -1.8735 H   0  0  0  0  0  0  0  0  0  0  0  0
  -41.5506  142.3943   -3.6947 H   0  0  0  0  0  0  0  0  0  0  0  0
  1  2  1  0
  2  3  1  0
  3  4  2  0
  4  5  1  0
  5  6  1  0
  6  7  2  0
  7  8  1  0
  8  9  1  0
  9 10  1  0
 10 11  1  0
 11 12  1  0
 12 13  1  0
 13 14  2  0
 14 15  1  0
 15 16  2  0
 16 17  1  0
 17 18  1  0
 17 19  1  6
 17 20  1  0
 20 21  1  0
 21 22  2  0
 22 23  1  0
 23 24  1  0
 23 25  2  0
 25 26  1  0
 16 27  1  0
 27 28  2  0
 12 29  1  0
 29 30  1  0
  8 31  2  0
 31 32  1  0
 32 33  2  0
 33 34  1  0
 34 35  1  0
  4 36  1  0
 36 37  2  0
 37  2  1  0
 35  5  2  0
 34  7  1  0
 30  9  1  0
 28 13  1  0
 26 20  2  0
  1 38  1  0
  1 39  1  0
  1 40  1  0
  3 41  1  0
  6 42  1  0
 10 43  1  0
 10 44  1  0
 11 45  1  0
 11 46  1  0
 15 47  1  0
 18 48  1  0
 18 49  1  0
 18 50  1  0
 19 51  1  0
 19 52  1  0
 21 53  1  0
 22 54  1  0
 25 55  1  0
 26 56  1  0
 27 57  1  0
 29 58  1  0
 29 59  1  0
 30 60  1  0
 30 61  1  0
 32 62  1  0
 35 63  1  0
 36 64  1  0
M  END
>  <meeko>  (5) 
{"is_sidechain": false}

>  <vina_affinity_kcal_mol>  (5) 
-8.927

>  <pose_rank>  (5) 
5

$$$$

     RDKit          3D

 64 69  0  0  0  0  0  0  0  0999 V2000
  -41.9450  145.1380   -6.6410 C   0  0  0  0  0  0  0  0  0  0  0  0
  -41.5880  145.5020   -5.2920 N   0  0  0  0  0  0  0  0  0  0  0  0
  -41.7820  144.7600   -4.1620 C   0  0  0  0  0  0  0  0  0  0  0  0
  -41.2860  145.5170   -3.1240 C   0  0  0  0  0  0  0  0  0  0  0  0
  -41.2410  145.2050   -1.7050 C   0  0  0  0  0  0  0  0  0  0  0  0
  -40.5190  145.9410   -0.7290 C   0  0  0  0  0  0  0  0  0  0  0  0
  -40.7420  145.3370    0.4950 C   0  0  0  0  0  0  0  0  0  0  0  0
  -40.3020  145.5930    1.8410 C   0  0  0  0  0  0  0  0  0  0  0  0
  -39.5440  146.6880    2.2360 N   0  0  0  0  0  0  0  0  0  0  0  0
  -38.9020  146.6900    3.5650 C   0  0  0  0  0  0  0  0  0  0  0  0
  -37.8000  147.7630    3.6810 C   0  0  0  0  0  0  0  0  0  0  0  0
  -38.3050  149.0960    3.3420 N   0  0  0  0  0  0  0  0  0  0  0  0
  -37.9670  150.1580    4.1540 C   0  0  0  0  0  0  0  0  0  0  0  0
  -38.5940  151.3310    3.9820 N   0  0  0  0  0  0  0  0  0  0  0  0
  -38.2280  152.3630    4.7700 C   0  0  0  0  0  0  0  0  0  0  0  0
  -37.2500  152.3010    5.7440 C   0  0  0  0  0  0  0  0  0  0  0  0
  -36.8930  153.5090    6.6040 C   0  0  1  0  0  0  0  0  0  0  0  0
  -38.2300  154.1850    7.0020 C   0  0  0  0  0  0  0  0  0  0  0  0
  -36.2620  153.1500    7.8850 N   0  0  0  0  0  0  0  0  0  0  0  0
  -35.9120  154.4510    5.8700 C   0  0  0  0  0  0  0  0  0  0  0  0
  -36.3120  155.6770    5.3040 C   0  0  0  0  0  0  0  0  0  0  0  0
  -35.3930  156.5060    4.6540 C   0  0  0  0  0  0  0  0  0  0  0  0
  -34.0610  156.1260    4.5680 C   0  0  0  0  0  0  0  0  0  0  0  0
  -33.1840  156.9220    3.9440 F   0  0  0  0  0  0  0  0  0  0  0  0
  -33.6270  154.9320    5.1240 C   0  0  0  0  0  0  0  0  0  0  0  0
  -34.5440  154.1030    5.7750 C   0  0  0  0  0  0  0  0  0  0  0  0
  -36.6710  151.0550    5.8410 C   0  0  0  0  0  0  0  0  0  0  0  0
  -37.0040  149.9950    5.0730 N   0  0  0  0  0  0  0  0  0  0  0  0
  -39.5650  149.1760    2.6060 C   0  0  0  0  0  0  0  0  0  0  0  0
  -39.6890  148.0110    1.6020 C   0  0  0  0  0  0  0  0  0  0  0  0
  -40.6420  144.7110    2.7400 N   0  0  0  0  0  0  0  0  0  0  0  0
  -41.4210  143.6380    2.3930 C   0  0  0  0  0  0  0  0  0  0  0  0
  -41.8880  143.3600    1.2190 N   0  0  0  0  0  0  0  0  0  0  0  0
  -41.5220  144.2390    0.2770 N   0  0  0  0  0  0  0  0  0  0  0  0
  -41.8560  144.1640   -1.0480 C   0  0  0  0  0  0  0  0  0  0  0  0
  -40.8150  146.6960   -3.7360 C   0  0  0  0  0  0  0  0  0  0  0  0
  -40.9970  146.6890   -5.0620 N   0  0  0  0  0  0  0  0  0  0  0  0
  -42.7151  144.3529   -6.6173 H   0  0  0  0  0  0  0  0  0  0  0  0
  -42.3373  146.0206   -7.1673 H   0  0  0  0  0  0  0  0  0  0  0  0
  -41.0549  144.7629   -7.1673 H   0  0  0  0  0  0  0  0  0  0  0  0
  -42.2404  143.7623   -4.0947 H   0  0  0  0  0  0  0  0  0  0  0  0
  -39.8963  146.8290   -0.9127 H   0  0  0  0  0  0  0  0  0  0  0  0
  -39.6693  146.8869    4.3282 H   0  0  0  0  0  0  0  0  0  0  0  0
  -38.4314  145.7068    3.7129 H   0  0  0  0  0  0  0  0  0  0  0  0
  -37.4228  147.7766    4.7142 H   0  0  0  0  0  0  0  0  0  0  0  0
  -36.9978  147.5093    2.9724 H   0  0  0  0  0  0  0  0  0  0  0  0
  -38.7455  153.3231    4.6268 H   0  0  0  0  0  0  0  0  0  0  0  0
  -38.3086  154.2247    8.0985 H   0  0  0  0  0  0  0  0  0  0  0  0
  -38.2598  155.2065    6.5950 H   0  0  0  0  0  0  0  0  0  0  0  0
  -39.0703  153.6034    6.5950 H   0  0  0  0  0  0  0  0  0  0  0  0
  -36.0110  153.9860    8.4050 H   0  0  0  0  0  0  0  0  0  0  0  0
  -35.4230  152.5950    7.7370 H   0  0  0  0  0  0  0  0  0  0  0  0
  -37.3649  155.9874    5.3745 H   0  0  0  0  0  0  0  0  0  0  0  0
  -35.7248  157.4570    4.2119 H   0  0  0  0  0  0  0  0  0  0  0  0
  -32.5689  154.6399    5.0530 H   0  0  0  0  0  0  0  0  0  0  0  0
  -34.1953  153.1607    6.2227 H   0  0  0  0  0  0  0  0  0  0  0  0
  -35.8834  150.9135    6.5957 H   0  0  0  0  0  0  0  0  0  0  0  0
  -40.4021  149.1288    3.3181 H   0  0  0  0  0  0  0  0  0  0  0  0
  -39.5882  150.1245    2.0495 H   0  0  0  0  0  0  0  0  0  0  0  0
  -40.6780  148.0641    1.1234 H   0  0  0  0  0  0  0  0  0  0  0  0
  -38.8737  148.1175    0.8712 H   0  0  0  0  0  0  0  0  0  0  0  0
  -41.6771  142.9367    3.2009 H   0  0  0  0  0  0  0  0  0  0  0  0
  -42.5038  143.4034   -1.5081 H   0  0  0  0  0  0  0  0  0  0  0  0
  -40.3504  147.5278   -3.1861 H   0  0  0  0  0  0  0  0  0  0  0  0
  1  2  1  0
  2  3  1  0
  3  4  2  0
  4  5  1  0
  5  6  1  0
  6  7  2  0
  7  8  1  0
  8  9  1  0
  9 10  1  0
 10 11  1  0
 11 12  1  0
 12 13  1  0
 13 14  2  0
 14 15  1  0
 15 16  2  0
 16 17  1  0
 17 18  1  0
 17 19  1  1
 17 20  1  0
 20 21  1  0
 21 22  2  0
 22 23  1  0
 23 24  1  0
 23 25  2  0
 25 26  1  0
 16 27  1  0
 27 28  2  0
 12 29  1  0
 29 30  1  0
  8 31  2  0
 31 32  1  0
 32 33  2  0
 33 34  1  0
 34 35  1  0
  4 36  1  0
 36 37  2  0
 37  2  1  0
 35  5  2  0
 34  7  1  0
 30  9  1  0
 28 13  1  0
 26 20  2  0
  1 38  1  0
  1 39  1  0
  1 40  1  0
  3 41  1  0
  6 42  1  0
 10 43  1  0
 10 44  1  0
 11 45  1  0
 11 46  1  0
 15 47  1  0
 18 48  1  0
 18 49  1  0
 18 50  1  0
 19 51  1  0
 19 52  1  0
 21 53  1  0
 22 54  1  0
 25 55  1  0
 26 56  1  0
 27 57  1  0
 29 58  1  0
 29 59  1  0
 30 60  1  0
 30 61  1  0
 32 62  1  0
 35 63  1  0
 36 64  1  0
M  END
>  <meeko>  (6) 
{"is_sidechain": false}

>  <vina_affinity_kcal_mol>  (6) 
-8.645

>  <pose_rank>  (6) 
6

$$$$

     RDKit          3D

 64 69  0  0  0  0  0  0  0  0999 V2000
  -45.8030  144.9400   10.7690 C   0  0  0  0  0  0  0  0  0  0  0  0
  -44.5960  144.9650    9.9790 N   0  0  0  0  0  0  0  0  0  0  0  0
  -44.4820  145.3160    8.6640 C   0  0  0  0  0  0  0  0  0  0  0  0
  -43.1480  145.1820    8.3520 C   0  0  0  0  0  0  0  0  0  0  0  0
  -42.4750  145.4240    7.0870 C   0  0  0  0  0  0  0  0  0  0  0  0
  -41.7980  146.6210    6.7370 C   0  0  0  0  0  0  0  0  0  0  0  0
  -41.2840  146.4510    5.4640 C   0  0  0  0  0  0  0  0  0  0  0  0
  -40.5190  147.2760    4.5670 C   0  0  0  0  0  0  0  0  0  0  0  0
  -40.0070  148.5290    4.8790 N   0  0  0  0  0  0  0  0  0  0  0  0
  -39.5070  149.4020    3.7990 C   0  0  0  0  0  0  0  0  0  0  0  0
  -39.3560  150.8680    4.2530 C   0  0  0  0  0  0  0  0  0  0  0  0
  -38.5160  150.9800    5.4490 N   0  0  0  0  0  0  0  0  0  0  0  0
  -37.5510  151.9640    5.4890 C   0  0  0  0  0  0  0  0  0  0  0  0
  -37.8460  153.1810    5.0090 N   0  0  0  0  0  0  0  0  0  0  0  0
  -36.8770  154.1200    5.0330 C   0  0  0  0  0  0  0  0  0  0  0  0
  -35.5980  153.9190    5.5160 C   0  0  0  0  0  0  0  0  0  0  0  0
  -34.5550  155.0310    5.5180 C   0  0  1  0  0  0  0  0  0  0  0  0
  -33.4670  154.6200    6.5430 C   0  0  0  0  0  0  0  0  0  0  0  0
  -33.8330  155.1600    4.2410 N   0  0  0  0  0  0  0  0  0  0  0  0
  -35.1970  156.4050    5.8100 C   0  0  0  0  0  0  0  0  0  0  0  0
  -35.3840  157.3870    4.8170 C   0  0  0  0  0  0  0  0  0  0  0  0
  -35.9760  158.6160    5.1190 C   0  0  0  0  0  0  0  0  0  0  0  0
  -36.3990  158.8790    6.4140 C   0  0  0  0  0  0  0  0  0  0  0  0
  -36.9660  160.0580    6.6990 F   0  0  0  0  0  0  0  0  0  0  0  0
  -36.2440  157.9330    7.4160 C   0  0  0  0  0  0  0  0  0  0  0  0
  -35.6530  156.7030    7.1160 C   0  0  0  0  0  0  0  0  0  0  0  0
  -35.4000  152.6390    5.9850 C   0  0  0  0  0  0  0  0  0  0  0  0
  -36.3390  151.6680    5.9800 N   0  0  0  0  0  0  0  0  0  0  0  0
  -38.2840  149.7670    6.2300 C   0  0  0  0  0  0  0  0  0  0  0  0
  -39.5390  148.8700    6.2350 C   0  0  0  0  0  0  0  0  0  0  0  0
  -40.3120  146.7960    3.3720 N   0  0  0  0  0  0  0  0  0  0  0  0
  -40.7710  145.5470    3.0420 C   0  0  0  0  0  0  0  0  0  0  0  0
  -41.4280  144.7300    3.8010 N   0  0  0  0  0  0  0  0  0  0  0  0
  -41.6760  145.2210    5.0230 N   0  0  0  0  0  0  0  0  0  0  0  0
  -42.3740  144.5760    6.0070 C   0  0  0  0  0  0  0  0  0  0  0  0
  -42.5450  144.7470    9.5500 C   0  0  0  0  0  0  0  0  0  0  0  0
  -43.4270  144.6150   10.5460 N   0  0  0  0  0  0  0  0  0  0  0  0
  -45.5420  144.9454   11.8376 H   0  0  0  0  0  0  0  0  0  0  0  0
  -46.4122  145.8257   10.5359 H   0  0  0  0  0  0  0  0  0  0  0  0
  -46.3750  144.0298   10.5359 H   0  0  0  0  0  0  0  0  0  0  0  0
  -45.2905  145.6395    7.9919 H   0  0  0  0  0  0  0  0  0  0  0  0
  -41.6999  147.5198    7.3635 H   0  0  0  0  0  0  0  0  0  0  0  0
  -38.5251  149.0307    3.4702 H   0  0  0  0  0  0  0  0  0  0  0  0
  -40.2410  149.3776    2.9800 H   0  0  0  0  0  0  0  0  0  0  0  0
  -38.8968  151.4480    3.4390 H   0  0  0  0  0  0  0  0  0  0  0  0
  -40.3556  151.2565    4.4977 H   0  0  0  0  0  0  0  0  0  0  0  0
  -37.1231  155.1174    4.6397 H   0  0  0  0  0  0  0  0  0  0  0  0
  -33.8511  154.7651    7.5635 H   0  0  0  0  0  0  0  0  0  0  0  0
  -33.2063  153.5614    6.3964 H   0  0  0  0  0  0  0  0  0  0  0  0
  -32.5715  155.2418    6.3964 H   0  0  0  0  0  0  0  0  0  0  0  0
  -34.2800  154.5980    3.5220 H   0  0  0  0  0  0  0  0  0  0  0  0
  -32.8670  154.8580    4.3350 H   0  0  0  0  0  0  0  0  0  0  0  0
  -35.0583  157.1825    3.7864 H   0  0  0  0  0  0  0  0  0  0  0  0
  -36.1064  159.3733    4.3319 H   0  0  0  0  0  0  0  0  0  0  0  0
  -36.5839  158.1494    8.4396 H   0  0  0  0  0  0  0  0  0  0  0  0
  -35.5399  155.9512    7.9110 H   0  0  0  0  0  0  0  0  0  0  0  0
  -34.4086  152.3904    6.3917 H   0  0  0  0  0  0  0  0  0  0  0  0
  -37.4442  149.2096    5.7895 H   0  0  0  0  0  0  0  0  0  0  0  0
  -38.0517  150.0540    7.2662 H   0  0  0  0  0  0  0  0  0  0  0  0
  -39.3019  147.9380    6.7690 H   0  0  0  0  0  0  0  0  0  0  0  0
  -40.3443  149.4325    6.7300 H   0  0  0  0  0  0  0  0  0  0  0  0
  -40.5574  145.2012    2.0198 H   0  0  0  0  0  0  0  0  0  0  0  0
  -42.7835  143.5569    5.9460 H   0  0  0  0  0  0  0  0  0  0  0  0
  -41.4697  144.5395    9.6535 H   0  0  0  0  0  0  0  0  0  0  0  0
  1  2  1  0
  2  3  1  0
  3  4  2  0
  4  5  1  0
  5  6  1  0
  6  7  2  0
  7  8  1  0
  8  9  1  0
  9 10  1  0
 10 11  1  0
 11 12  1  0
 12 13  1  0
 13 14  2  0
 14 15  1  0
 15 16  2  0
 16 17  1  0
 17 18  1  0
 17 19  1  6
 17 20  1  0
 20 21  1  0
 21 22  2  0
 22 23  1  0
 23 24  1  0
 23 25  2  0
 25 26  1  0
 16 27  1  0
 27 28  2  0
 12 29  1  0
 29 30  1  0
  8 31  2  0
 31 32  1  0
 32 33  2  0
 33 34  1  0
 34 35  1  0
  4 36  1  0
 36 37  2  0
 37  2  1  0
 35  5  2  0
 34  7  1  0
 30  9  1  0
 28 13  1  0
 26 20  2  0
  1 38  1  0
  1 39  1  0
  1 40  1  0
  3 41  1  0
  6 42  1  0
 10 43  1  0
 10 44  1  0
 11 45  1  0
 11 46  1  0
 15 47  1  0
 18 48  1  0
 18 49  1  0
 18 50  1  0
 19 51  1  0
 19 52  1  0
 21 53  1  0
 22 54  1  0
 25 55  1  0
 26 56  1  0
 27 57  1  0
 29 58  1  0
 29 59  1  0
 30 60  1  0
 30 61  1  0
 32 62  1  0
 35 63  1  0
 36 64  1  0
M  END
>  <meeko>  (7) 
{"is_sidechain": false}

>  <vina_affinity_kcal_mol>  (7) 
-8.534

>  <pose_rank>  (7) 
7

$$$$

     RDKit          3D

 64 69  0  0  0  0  0  0  0  0999 V2000
  -38.9290  158.3220    2.5430 C   0  0  0  0  0  0  0  0  0  0  0  0
  -38.0750  157.6360    3.4830 N   0  0  0  0  0  0  0  0  0  0  0  0
  -37.8540  156.2910    3.5610 C   0  0  0  0  0  0  0  0  0  0  0  0
  -36.9770  156.1140    4.6070 C   0  0  0  0  0  0  0  0  0  0  0  0
  -36.4100  154.8800    5.1260 C   0  0  0  0  0  0  0  0  0  0  0  0
  -37.1070  153.6510    5.2590 C   0  0  0  0  0  0  0  0  0  0  0  0
  -36.2200  152.7230    5.7740 C   0  0  0  0  0  0  0  0  0  0  0  0
  -36.3110  151.3330    6.1340 C   0  0  0  0  0  0  0  0  0  0  0  0
  -37.4230  150.5270    5.9230 N   0  0  0  0  0  0  0  0  0  0  0  0
  -37.5120  149.2170    6.5980 C   0  0  0  0  0  0  0  0  0  0  0  0
  -38.9450  148.6470    6.5810 C   0  0  0  0  0  0  0  0  0  0  0  0
  -39.4820  148.5730    5.2200 N   0  0  0  0  0  0  0  0  0  0  0  0
  -40.1420  147.4260    4.8310 C   0  0  0  0  0  0  0  0  0  0  0  0
  -40.0010  146.9930    3.5700 N   0  0  0  0  0  0  0  0  0  0  0  0
  -40.6780  145.8850    3.2040 C   0  0  0  0  0  0  0  0  0  0  0  0
  -41.5100  145.1610    4.0360 C   0  0  0  0  0  0  0  0  0  0  0  0
  -42.2400  143.9110    3.5560 C   0  0  1  0  0  0  0  0  0  0  0  0
  -41.2710  142.7200    3.7670 C   0  0  0  0  0  0  0  0  0  0  0  0
  -43.4240  143.5760    4.3650 N   0  0  0  0  0  0  0  0  0  0  0  0
  -42.7240  144.0680    2.0970 C   0  0  0  0  0  0  0  0  0  0  0  0
  -43.8930  144.7750    1.7530 C   0  0  0  0  0  0  0  0  0  0  0  0
  -44.2940  144.9010    0.4200 C   0  0  0  0  0  0  0  0  0  0  0  0
  -43.5300  144.3310   -0.5880 C   0  0  0  0  0  0  0  0  0  0  0  0
  -43.9180  144.4550   -1.8630 F   0  0  0  0  0  0  0  0  0  0  0  0
  -42.3660  143.6390   -0.2900 C   0  0  0  0  0  0  0  0  0  0  0  0
  -41.9620  143.5130    1.0420 C   0  0  0  0  0  0  0  0  0  0  0  0
  -41.5850  145.6880    5.3070 C   0  0  0  0  0  0  0  0  0  0  0  0
  -40.9270  146.7950    5.7160 N   0  0  0  0  0  0  0  0  0  0  0  0
  -38.8140  149.3580    4.1840 C   0  0  0  0  0  0  0  0  0  0  0  0
  -38.3050  150.6980    4.7540 C   0  0  0  0  0  0  0  0  0  0  0  0
  -35.2620  150.8130    6.7100 N   0  0  0  0  0  0  0  0  0  0  0  0
  -34.1340  151.5690    6.8990 C   0  0  0  0  0  0  0  0  0  0  0  0
  -33.9600  152.8090    6.5690 N   0  0  0  0  0  0  0  0  0  0  0  0
  -35.0390  153.3660    6.0040 N   0  0  0  0  0  0  0  0  0  0  0  0
  -35.1300  154.6670    5.5880 C   0  0  0  0  0  0  0  0  0  0  0  0
  -36.7300  157.4150    5.0890 C   0  0  0  0  0  0  0  0  0  0  0  0
  -37.3990  158.3480    4.4030 N   0  0  0  0  0  0  0  0  0  0  0  0
  -39.6725  158.9192    3.0913 H   0  0  0  0  0  0  0  0  0  0  0  0
  -38.3202  158.9850    1.9107 H   0  0  0  0  0  0  0  0  0  0  0  0
  -39.4451  157.5846    1.9107 H   0  0  0  0  0  0  0  0  0  0  0  0
  -38.2876  155.5095    2.9198 H   0  0  0  0  0  0  0  0  0  0  0  0
  -38.1605  153.4695    4.9998 H   0  0  0  0  0  0  0  0  0  0  0  0
  -36.8434  148.5091    6.0863 H   0  0  0  0  0  0  0  0  0  0  0  0
  -37.2182  149.3586    7.6485 H   0  0  0  0  0  0  0  0  0  0  0  0
  -38.9318  147.6362    7.0146 H   0  0  0  0  0  0  0  0  0  0  0  0
  -39.5886  149.3190    7.1678 H   0  0  0  0  0  0  0  0  0  0  0  0
  -40.5590  145.5327    2.1688 H   0  0  0  0  0  0  0  0  0  0  0  0
  -41.1309  142.5478    4.8444 H   0  0  0  0  0  0  0  0  0  0  0  0
  -41.6939  141.8166    3.3032 H   0  0  0  0  0  0  0  0  0  0  0  0
  -40.3005  142.9503    3.3032 H   0  0  0  0  0  0  0  0  0  0  0  0
  -43.1630  142.9840    5.1480 H   0  0  0  0  0  0  0  0  0  0  0  0
  -44.1210  143.0900    3.8070 H   0  0  0  0  0  0  0  0  0  0  0  0
  -44.5001  145.2354    2.5464 H   0  0  0  0  0  0  0  0  0  0  0  0
  -45.2134  145.4510    0.1707 H   0  0  0  0  0  0  0  0  0  0  0  0
  -41.7650  143.1925   -1.0959 H   0  0  0  0  0  0  0  0  0  0  0  0
  -41.0332  142.9716    1.2747 H   0  0  0  0  0  0  0  0  0  0  0  0
  -42.2243  145.1722    6.0387 H   0  0  0  0  0  0  0  0  0  0  0  0
  -37.9604  148.7855    3.7920 H   0  0  0  0  0  0  0  0  0  0  0  0
  -39.5357  149.5682    3.3809 H   0  0  0  0  0  0  0  0  0  0  0  0
  -37.7457  151.2244    3.9665 H   0  0  0  0  0  0  0  0  0  0  0  0
  -39.1839  151.2707    5.0850 H   0  0  0  0  0  0  0  0  0  0  0  0
  -33.2837  151.0673    7.3841 H   0  0  0  0  0  0  0  0  0  0  0  0
  -34.3217  155.4125    5.6175 H   0  0  0  0  0  0  0  0  0  0  0  0
  -36.0622  157.6380    5.9342 H   0  0  0  0  0  0  0  0  0  0  0  0
  1  2  1  0
  2  3  1  0
  3  4  2  0
  4  5  1  0
  5  6  1  0
  6  7  2  0
  7  8  1  0
  8  9  1  0
  9 10  1  0
 10 11  1  0
 11 12  1  0
 12 13  1  0
 13 14  2  0
 14 15  1  0
 15 16  2  0
 16 17  1  0
 17 18  1  0
 17 19  1  1
 17 20  1  0
 20 21  1  0
 21 22  2  0
 22 23  1  0
 23 24  1  0
 23 25  2  0
 25 26  1  0
 16 27  1  0
 27 28  2  0
 12 29  1  0
 29 30  1  0
  8 31  2  0
 31 32  1  0
 32 33  2  0
 33 34  1  0
 34 35  1  0
  4 36  1  0
 36 37  2  0
 37  2  1  0
 35  5  2  0
 34  7  1  0
 30  9  1  0
 28 13  1  0
 26 20  2  0
  1 38  1  0
  1 39  1  0
  1 40  1  0
  3 41  1  0
  6 42  1  0
 10 43  1  0
 10 44  1  0
 11 45  1  0
 11 46  1  0
 15 47  1  0
 18 48  1  0
 18 49  1  0
 18 50  1  0
 19 51  1  0
 19 52  1  0
 21 53  1  0
 22 54  1  0
 25 55  1  0
 26 56  1  0
 27 57  1  0
 29 58  1  0
 29 59  1  0
 30 60  1  0
 30 61  1  0
 32 62  1  0
 35 63  1  0
 36 64  1  0
M  END
>  <meeko>  (8) 
{"is_sidechain": false}

>  <vina_affinity_kcal_mol>  (8) 
-8.226

>  <pose_rank>  (8) 
8

$$$$

     RDKit          3D

 64 69  0  0  0  0  0  0  0  0999 V2000
  -39.3080  160.3630   -0.2530 C   0  0  0  0  0  0  0  0  0  0  0  0
  -39.2190  159.4790    0.8830 N   0  0  0  0  0  0  0  0  0  0  0  0
  -38.1090  158.8160    1.3230 C   0  0  0  0  0  0  0  0  0  0  0  0
  -38.5110  158.0990    2.4270 C   0  0  0  0  0  0  0  0  0  0  0  0
  -37.7300  157.2190    3.2810 C   0  0  0  0  0  0  0  0  0  0  0  0
  -38.1220  155.9180    3.6910 C   0  0  0  0  0  0  0  0  0  0  0  0
  -37.1060  155.4070    4.4780 C   0  0  0  0  0  0  0  0  0  0  0  0
  -36.9020  154.1690    5.1820 C   0  0  0  0  0  0  0  0  0  0  0  0
  -37.7530  153.0720    5.1280 N   0  0  0  0  0  0  0  0  0  0  0  0
  -37.6050  151.9840    6.1150 C   0  0  0  0  0  0  0  0  0  0  0  0
  -38.8460  151.0700    6.1680 C   0  0  0  0  0  0  0  0  0  0  0  0
  -39.1810  150.5350    4.8460 N   0  0  0  0  0  0  0  0  0  0  0  0
  -39.4940  149.1960    4.7330 C   0  0  0  0  0  0  0  0  0  0  0  0
  -38.7640  148.4280    3.9120 N   0  0  0  0  0  0  0  0  0  0  0  0
  -39.1050  147.1270    3.7970 C   0  0  0  0  0  0  0  0  0  0  0  0
  -40.1560  146.5280    4.4650 C   0  0  0  0  0  0  0  0  0  0  0  0
  -40.4800  145.0480    4.2920 C   0  0  1  0  0  0  0  0  0  0  0  0
  -39.1880  144.3660    3.7730 C   0  0  0  0  0  0  0  0  0  0  0  0
  -40.7800  144.3610    5.5590 N   0  0  0  0  0  0  0  0  0  0  0  0
  -41.7040  144.8440    3.3720 C   0  0  0  0  0  0  0  0  0  0  0  0
  -41.8100  145.4390    2.0990 C   0  0  0  0  0  0  0  0  0  0  0  0
  -42.9320  145.2240    1.2930 C   0  0  0  0  0  0  0  0  0  0  0  0
  -43.9590  144.4080    1.7420 C   0  0  0  0  0  0  0  0  0  0  0  0
  -45.0310  144.2050    0.9670 F   0  0  0  0  0  0  0  0  0  0  0  0
  -43.8860  143.7950    2.9840 C   0  0  0  0  0  0  0  0  0  0  0  0
  -42.7650  144.0060    3.7910 C   0  0  0  0  0  0  0  0  0  0  0  0
  -40.8380  147.4020    5.2820 C   0  0  0  0  0  0  0  0  0  0  0  0
  -40.5340  148.7100    5.4260 N   0  0  0  0  0  0  0  0  0  0  0  0
  -38.6010  151.1990    3.6800 C   0  0  0  0  0  0  0  0  0  0  0  0
  -38.5030  152.7220    3.9080 C   0  0  0  0  0  0  0  0  0  0  0  0
  -35.8360  154.0960    5.9320 N   0  0  0  0  0  0  0  0  0  0  0  0
  -34.9550  155.1460    5.9800 C   0  0  0  0  0  0  0  0  0  0  0  0
  -35.0460  156.2710    5.3480 N   0  0  0  0  0  0  0  0  0  0  0  0
  -36.1510  156.3740    4.5980 N   0  0  0  0  0  0  0  0  0  0  0  0
  -36.5020  157.4670    3.8530 C   0  0  0  0  0  0  0  0  0  0  0  0
  -39.8810  158.4010    2.5690 C   0  0  0  0  0  0  0  0  0  0  0  0
  -40.3160  159.2450    1.6270 N   0  0  0  0  0  0  0  0  0  0  0  0
  -39.4125  161.4006    0.0971 H   0  0  0  0  0  0  0  0  0  0  0  0
  -38.3961  160.2713   -0.8613 H   0  0  0  0  0  0  0  0  0  0  0  0
  -40.1833  160.0914   -0.8613 H   0  0  0  0  0  0  0  0  0  0  0  0
  -37.1005  158.8484    0.8849 H   0  0  0  0  0  0  0  0  0  0  0  0
  -39.0618  155.4092    3.4305 H   0  0  0  0  0  0  0  0  0  0  0  0
  -36.7293  151.3763    5.8432 H   0  0  0  0  0  0  0  0  0  0  0  0
  -37.4825  152.4434    7.1069 H   0  0  0  0  0  0  0  0  0  0  0  0
  -38.6427  150.2319    6.8508 H   0  0  0  0  0  0  0  0  0  0  0  0
  -39.6982  151.6687    6.5220 H   0  0  0  0  0  0  0  0  0  0  0  0
  -38.5034  146.4989    3.1236 H   0  0  0  0  0  0  0  0  0  0  0  0
  -38.5754  144.0426    4.6275 H   0  0  0  0  0  0  0  0  0  0  0  0
  -39.4552  143.4915    3.1616 H   0  0  0  0  0  0  0  0  0  0  0  0
  -38.6167  145.0800    3.1616 H   0  0  0  0  0  0  0  0  0  0  0  0
  -41.4870  143.6450    5.4170 H   0  0  0  0  0  0  0  0  0  0  0  0
  -41.1160  145.0160    6.2590 H   0  0  0  0  0  0  0  0  0  0  0  0
  -40.9967  146.0831    1.7335 H   0  0  0  0  0  0  0  0  0  0  0  0
  -42.9998  145.7014    0.3043 H   0  0  0  0  0  0  0  0  0  0  0  0
  -44.7046  143.1474    3.3312 H   0  0  0  0  0  0  0  0  0  0  0  0
  -42.7059  143.5110    4.7715 H   0  0  0  0  0  0  0  0  0  0  0  0
  -41.6889  147.0076    5.8569 H   0  0  0  0  0  0  0  0  0  0  0  0
  -37.5935  150.7959    3.4997 H   0  0  0  0  0  0  0  0  0  0  0  0
  -39.2491  151.0140    2.8107 H   0  0  0  0  0  0  0  0  0  0  0  0
  -37.9967  153.1746    3.0427 H   0  0  0  0  0  0  0  0  0  0  0  0
  -39.5273  153.1044    4.0289 H   0  0  0  0  0  0  0  0  0  0  0  0
  -34.0746  155.0174    6.6268 H   0  0  0  0  0  0  0  0  0  0  0  0
  -35.9068  158.3841    3.7321 H   0  0  0  0  0  0  0  0  0  0  0  0
  -40.5196  157.9892    3.3643 H   0  0  0  0  0  0  0  0  0  0  0  0
  1  2  1  0
  2  3  1  0
  3  4  2  0
  4  5  1  0
  5  6  1  0
  6  7  2  0
  7  8  1  0
  8  9  1  0
  9 10  1  0
 10 11  1  0
 11 12  1  0
 12 13  1  0
 13 14  2  0
 14 15  1  0
 15 16  2  0
 16 17  1  0
 17 18  1  0
 17 19  1  1
 17 20  1  0
 20 21  1  0
 21 22  2  0
 22 23  1  0
 23 24  1  0
 23 25  2  0
 25 26  1  0
 16 27  1  0
 27 28  2  0
 12 29  1  0
 29 30  1  0
  8 31  2  0
 31 32  1  0
 32 33  2  0
 33 34  1  0
 34 35  1  0
  4 36  1  0
 36 37  2  0
 37  2  1  0
 35  5  2  0
 34  7  1  0
 30  9  1  0
 28 13  1  0
 26 20  2  0
  1 38  1  0
  1 39  1  0
  1 40  1  0
  3 41  1  0
  6 42  1  0
 10 43  1  0
 10 44  1  0
 11 45  1  0
 11 46  1  0
 15 47  1  0
 18 48  1  0
 18 49  1  0
 18 50  1  0
 19 51  1  0
 19 52  1  0
 21 53  1  0
 22 54  1  0
 25 55  1  0
 26 56  1  0
 27 57  1  0
 29 58  1  0
 29 59  1  0
 30 60  1  0
 30 61  1  0
 32 62  1  0
 35 63  1  0
 36 64  1  0
M  END
>  <meeko>  (9) 
{"is_sidechain": false}

>  <vina_affinity_kcal_mol>  (9) 
-8.202

>  <pose_rank>  (9) 
9

$$$$

     RDKit          3D

 64 69  0  0  0  0  0  0  0  0999 V2000
  -33.6910  156.5370    4.4230 C   0  0  0  0  0  0  0  0  0  0  0  0
  -34.5470  155.5110    4.9670 N   0  0  0  0  0  0  0  0  0  0  0  0
  -34.1760  154.2600    5.3700 C   0  0  0  0  0  0  0  0  0  0  0  0
  -35.3280  153.6490    5.8100 C   0  0  0  0  0  0  0  0  0  0  0  0
  -35.5070  152.3090    6.3450 C   0  0  0  0  0  0  0  0  0  0  0  0
  -36.5440  151.4130    5.9770 C   0  0  0  0  0  0  0  0  0  0  0  0
  -36.3570  150.2450    6.6930 C   0  0  0  0  0  0  0  0  0  0  0  0
  -37.0530  148.9880    6.7730 C   0  0  0  0  0  0  0  0  0  0  0  0
  -38.1330  148.6250    5.9770 N   0  0  0  0  0  0  0  0  0  0  0  0
  -38.9480  147.4510    6.3470 C   0  0  0  0  0  0  0  0  0  0  0  0
  -40.3050  147.4280    5.6140 C   0  0  0  0  0  0  0  0  0  0  0  0
  -40.1370  147.5120    4.1610 N   0  0  0  0  0  0  0  0  0  0  0  0
  -40.8730  146.6640    3.3600 C   0  0  0  0  0  0  0  0  0  0  0  0
  -41.2470  145.4730    3.8480 N   0  0  0  0  0  0  0  0  0  0  0  0
  -41.9430  144.6490    3.0370 C   0  0  0  0  0  0  0  0  0  0  0  0
  -42.2990  144.9440    1.7350 C   0  0  0  0  0  0  0  0  0  0  0  0
  -43.0940  143.9650    0.8770 C   0  0  1  0  0  0  0  0  0  0  0  0
  -43.0990  142.6120    1.6320 C   0  0  0  0  0  0  0  0  0  0  0  0
  -44.5160  144.3230    0.7440 N   0  0  0  0  0  0  0  0  0  0  0  0
  -42.5190  143.8770   -0.5540 C   0  0  0  0  0  0  0  0  0  0  0  0
  -43.2760  144.1880   -1.7010 C   0  0  0  0  0  0  0  0  0  0  0  0
  -42.7170  144.1020   -2.9800 C   0  0  0  0  0  0  0  0  0  0  0  0
  -41.3940  143.7140   -3.1310 C   0  0  0  0  0  0  0  0  0  0  0  0
  -40.8630  143.6340   -4.3570 F   0  0  0  0  0  0  0  0  0  0  0  0
  -40.6130  143.4130   -2.0250 C   0  0  0  0  0  0  0  0  0  0  0  0
  -41.1690  143.4990   -0.7460 C   0  0  0  0  0  0  0  0  0  0  0  0
  -41.8690  146.1890    1.3320 C   0  0  0  0  0  0  0  0  0  0  0  0
  -41.1700  147.0450    2.1080 N   0  0  0  0  0  0  0  0  0  0  0  0
  -38.8480  147.9790    3.6540 C   0  0  0  0  0  0  0  0  0  0  0  0
  -38.2580  149.0660    4.5760 C   0  0  0  0  0  0  0  0  0  0  0  0
  -36.6290  148.1450    7.6740 N   0  0  0  0  0  0  0  0  0  0  0  0
  -35.5430  148.4560    8.4510 C   0  0  0  0  0  0  0  0  0  0  0  0
  -34.8410  149.5430    8.4130 N   0  0  0  0  0  0  0  0  0  0  0  0
  -35.2830  150.4320    7.5140 N   0  0  0  0  0  0  0  0  0  0  0  0
  -34.7390  151.6680    7.2920 C   0  0  0  0  0  0  0  0  0  0  0  0
  -36.3360  154.6180    5.6310 C   0  0  0  0  0  0  0  0  0  0  0  0
  -35.8610  155.7580    5.1170 N   0  0  0  0  0  0  0  0  0  0  0  0
  -33.2229  157.0980    5.2453 H   0  0  0  0  0  0  0  0  0  0  0  0
  -32.9091  156.0723    3.8045 H   0  0  0  0  0  0  0  0  0  0  0  0
  -34.2883  157.2230    3.8045 H   0  0  0  0  0  0  0  0  0  0  0  0
  -33.1641  153.8292    5.3475 H   0  0  0  0  0  0  0  0  0  0  0  0
  -37.3493  151.6113    5.2544 H   0  0  0  0  0  0  0  0  0  0  0  0
  -38.3910  146.5380    6.0896 H   0  0  0  0  0  0  0  0  0  0  0  0
  -39.1490  147.5069    7.4270 H   0  0  0  0  0  0  0  0  0  0  0  0
  -40.8268  146.4911    5.8590 H   0  0  0  0  0  0  0  0  0  0  0  0
  -40.8876  148.3011    5.9431 H   0  0  0  0  0  0  0  0  0  0  0  0
  -42.2487  143.6728    3.4414 H   0  0  0  0  0  0  0  0  0  0  0  0
  -43.0983  142.7972    2.7163 H   0  0  0  0  0  0  0  0  0  0  0  0
  -43.9993  142.0425    1.3579 H   0  0  0  0  0  0  0  0  0  0  0  0
  -42.2030  142.0358    1.3579 H   0  0  0  0  0  0  0  0  0  0  0  0
  -44.8120  144.2520   -0.2250 H   0  0  0  0  0  0  0  0  0  0  0  0
  -44.6860  145.2710    1.0680 H   0  0  0  0  0  0  0  0  0  0  0  0
  -44.3237  144.5036   -1.5886 H   0  0  0  0  0  0  0  0  0  0  0  0
  -43.3254  144.3416   -3.8646 H   0  0  0  0  0  0  0  0  0  0  0  0
  -39.5638  143.1088   -2.1538 H   0  0  0  0  0  0  0  0  0  0  0  0
  -40.5444  143.2681    0.1296 H   0  0  0  0  0  0  0  0  0  0  0  0
  -42.1117  146.5079    0.3076 H   0  0  0  0  0  0  0  0  0  0  0  0
  -38.1505  147.1298    3.6054 H   0  0  0  0  0  0  0  0  0  0  0  0
  -38.9978  148.4092    2.6528 H   0  0  0  0  0  0  0  0  0  0  0  0
  -37.2594  149.3379    4.2034 H   0  0  0  0  0  0  0  0  0  0  0  0
  -38.9485  149.9222    4.5602 H   0  0  0  0  0  0  0  0  0  0  0  0
  -35.2345  147.6991    9.1872 H   0  0  0  0  0  0  0  0  0  0  0  0
  -33.8446  152.0780    7.7839 H   0  0  0  0  0  0  0  0  0  0  0  0
  -37.3937  154.4551    5.8853 H   0  0  0  0  0  0  0  0  0  0  0  0
  1  2  1  0
  2  3  1  0
  3  4  2  0
  4  5  1  0
  5  6  1  0
  6  7  2  0
  7  8  1  0
  8  9  1  0
  9 10  1  0
 10 11  1  0
 11 12  1  0
 12 13  1  0
 13 14  2  0
 14 15  1  0
 15 16  2  0
 16 17  1  0
 17 18  1  0
 17 19  1  6
 17 20  1  0
 20 21  1  0
 21 22  2  0
 22 23  1  0
 23 24  1  0
 23 25  2  0
 25 26  1  0
 16 27  1  0
 27 28  2  0
 12 29  1  0
 29 30  1  0
  8 31  2  0
 31 32  1  0
 32 33  2  0
 33 34  1  0
 34 35  1  0
  4 36  1  0
 36 37  2  0
 37  2  1  0
 35  5  2  0
 34  7  1  0
 30  9  1  0
 28 13  1  0
 26 20  2  0
  1 38  1  0
  1 39  1  0
  1 40  1  0
  3 41  1  0
  6 42  1  0
 10 43  1  0
 10 44  1  0
 11 45  1  0
 11 46  1  0
 15 47  1  0
 18 48  1  0
 18 49  1  0
 18 50  1  0
 19 51  1  0
 19 52  1  0
 21 53  1  0
 22 54  1  0
 25 55  1  0
 26 56  1  0
 27 57  1  0
 29 58  1  0
 29 59  1  0
 30 60  1  0
 30 61  1  0
 32 62  1  0
 35 63  1  0
 36 64  1  0
M  END
>  <meeko>  (10) 
{"is_sidechain": false}

>  <vina_affinity_kcal_mol>  (10) 
-8.094

>  <pose_rank>  (10) 
10

$$$$
