
     RDKit          3D

 49 52  0  0  0  0  0  0  0  0999 V2000
  -15.1970    1.2230   -8.5980 C   0  0  0  0  0  0  0  0  0  0  0  0
  -14.8860    0.3220   -9.6630 O   0  0  0  0  0  0  0  0  0  0  0  0
  -13.8370    0.7990  -10.4050 C   0  0  0  0  0  0  0  0  0  0  0  0
  -14.1000    1.7380  -11.4070 C   0  0  0  0  0  0  0  0  0  0  0  0
  -13.1000    2.2080  -12.2450 C   0  0  0  0  0  0  0  0  0  0  0  0
  -13.4120    3.1230  -13.1790 N   0  0  0  0  0  0  0  0  0  0  0  0
  -12.4310    3.5890  -13.9810 C   0  0  0  0  0  0  0  0  0  0  0  0
  -11.1210    3.1700  -13.9100 C   0  0  0  0  0  0  0  0  0  0  0  0
  -10.8090    2.2010  -12.9630 C   0  0  0  0  0  0  0  0  0  0  0  0
   -9.5070    1.7680  -12.8230 O   0  0  0  0  0  0  0  0  0  0  0  0
   -8.7710    1.5900  -13.9750 C   0  0  0  0  0  0  0  0  0  0  0  0
   -9.0290    0.5900  -14.9140 C   0  0  0  0  0  0  0  0  0  0  0  0
   -8.2080    0.4540  -16.0400 C   0  0  0  0  0  0  0  0  0  0  0  0
   -7.1150    1.3020  -16.2320 C   0  0  0  0  0  0  0  0  0  0  0  0
   -6.2560    1.2150  -17.3530 N   0  0  0  0  0  0  0  0  0  0  0  0
   -5.0230    0.6040  -17.4340 C   0  0  0  0  0  0  0  0  0  0  0  0
   -4.4140    0.0770  -16.5110 O   0  0  0  0  0  0  0  0  0  0  0  0
   -4.5220    0.6740  -18.7240 N   0  0  0  0  0  0  0  0  0  0  0  0
   -3.2710    0.0710  -19.0740 C   0  0  0  0  0  0  0  0  0  0  0  0
   -2.5700    0.4490  -20.3490 C   0  0  0  0  0  0  0  0  0  0  0  0
   -1.9970    0.8700  -19.0270 C   0  0  0  0  0  0  0  0  0  0  0  0
   -6.8630    2.2980  -15.2700 C   0  0  0  0  0  0  0  0  0  0  0  0
   -5.5280    3.3870  -15.4440 Cl  0  0  0  0  0  0  0  0  0  0  0  0
   -7.6780    2.4360  -14.1440 C   0  0  0  0  0  0  0  0  0  0  0  0
  -11.7920    1.7050  -12.0860 C   0  0  0  0  0  0  0  0  0  0  0  0
  -11.5290    0.7410  -11.0870 C   0  0  0  0  0  0  0  0  0  0  0  0
  -12.5530    0.2810  -10.2520 C   0  0  0  0  0  0  0  0  0  0  0  0
  -12.2420   -0.7180   -9.2030 C   0  0  0  0  0  0  0  0  0  0  0  0
  -12.9720   -1.8760   -9.2420 N   0  0  0  0  0  0  0  0  0  0  0  0
  -11.3790   -0.5360   -8.3560 O   0  0  0  0  0  0  0  0  0  0  0  0
  -15.0246    0.7237   -7.6331 H   0  0  0  0  0  0  0  0  0  0  0  0
  -14.5539    2.1124   -8.6706 H   0  0  0  0  0  0  0  0  0  0  0  0
  -16.2519    1.5263   -8.6706 H   0  0  0  0  0  0  0  0  0  0  0  0
  -15.1261    2.1135  -11.5338 H   0  0  0  0  0  0  0  0  0  0  0  0
  -12.6930    4.3467  -14.7342 H   0  0  0  0  0  0  0  0  0  0  0  0
  -10.3513    3.5859  -14.5767 H   0  0  0  0  0  0  0  0  0  0  0  0
   -9.8792   -0.0927  -14.7691 H   0  0  0  0  0  0  0  0  0  0  0  0
   -8.4261   -0.3290  -16.7812 H   0  0  0  0  0  0  0  0  0  0  0  0
   -6.5220    1.7900  -18.1430 H   0  0  0  0  0  0  0  0  0  0  0  0
   -5.2010    0.7840  -19.4640 H   0  0  0  0  0  0  0  0  0  0  0  0
   -3.6155   -0.8724  -18.6253 H   0  0  0  0  0  0  0  0  0  0  0  0
   -2.0631   -0.3225  -20.9472 H   0  0  0  0  0  0  0  0  0  0  0  0
   -2.8628    0.9722  -21.2712 H   0  0  0  0  0  0  0  0  0  0  0  0
   -1.0706    0.4067  -18.6565 H   0  0  0  0  0  0  0  0  0  0  0  0
   -1.6965    1.8289  -18.5796 H   0  0  0  0  0  0  0  0  0  0  0  0
   -7.4573    3.2097  -13.3939 H   0  0  0  0  0  0  0  0  0  0  0  0
  -10.5088    0.3482  -10.9645 H   0  0  0  0  0  0  0  0  0  0  0  0
  -13.8350   -1.9410   -9.7650 H   0  0  0  0  0  0  0  0  0  0  0  0
  -12.8540   -2.4980   -8.4520 H   0  0  0  0  0  0  0  0  0  0  0  0
  1  2  1  0
  2  3  1  0
  3  4  1  0
  4  5  2  0
  5  6  1  0
  6  7  2  0
  7  8  1  0
  8  9  2  0
  9 10  1  0
 10 11  1  0
 11 12  1  0
 12 13  2  0
 13 14  1  0
 14 15  1  0
 15 16  1  0
 16 17  2  0
 16 18  1  0
 18 19  1  0
 19 20  1  0
 20 21  1  0
 14 22  2  0
 22 23  1  0
 22 24  1  0
  9 25  1  0
 25 26  2  0
 26 27  1  0
 27 28  1  0
 28 29  1  0
 28 30  2  0
 27  3  2  0
 25  5  1  0
 24 11  2  0
 21 19  1  0
  1 31  1  0
  1 32  1  0
  1 33  1  0
  4 34  1  0
  7 35  1  0
  8 36  1  0
 12 37  1  0
 13 38  1  0
 15 39  1  0
 18 40  1  0
 19 41  1  0
 20 42  1  0
 20 43  1  0
 21 44  1  0
 21 45  1  0
 24 46  1  0
 26 47  1  0
 29 48  1  0
 29 49  1  0
M  END
>  <meeko>  (1) 
{"is_sidechain": false}

>  <vina_affinity_kcal_mol>  (1) 
-8.184

>  <pose_rank>  (1) 
1

$$$$

     RDKit          3D

 49 52  0  0  0  0  0  0  0  0999 V2000
   -7.0190    4.3660  -17.9520 C   0  0  0  0  0  0  0  0  0  0  0  0
   -7.7190    3.1230  -18.0240 O   0  0  0  0  0  0  0  0  0  0  0  0
   -8.5100    2.9520  -16.9180 C   0  0  0  0  0  0  0  0  0  0  0  0
   -9.5640    3.8460  -16.7060 C   0  0  0  0  0  0  0  0  0  0  0  0
  -10.3580    3.7790  -15.5700 C   0  0  0  0  0  0  0  0  0  0  0  0
  -11.3680    4.6560  -15.4320 N   0  0  0  0  0  0  0  0  0  0  0  0
  -12.1470    4.5760  -14.3320 C   0  0  0  0  0  0  0  0  0  0  0  0
  -11.9610    3.6510  -13.3280 C   0  0  0  0  0  0  0  0  0  0  0  0
  -10.8970    2.7660  -13.4620 C   0  0  0  0  0  0  0  0  0  0  0  0
  -10.6830    1.7960  -12.5050 O   0  0  0  0  0  0  0  0  0  0  0  0
  -11.7760    1.3650  -11.7840 C   0  0  0  0  0  0  0  0  0  0  0  0
  -13.0140    2.0070  -11.7940 C   0  0  0  0  0  0  0  0  0  0  0  0
  -14.0640    1.5250  -11.0020 C   0  0  0  0  0  0  0  0  0  0  0  0
  -13.8830    0.4090  -10.1820 C   0  0  0  0  0  0  0  0  0  0  0  0
  -14.9070   -0.1260   -9.3670 N   0  0  0  0  0  0  0  0  0  0  0  0
  -15.5880    0.4940   -8.3410 C   0  0  0  0  0  0  0  0  0  0  0  0
  -15.3720    1.6170   -7.9030 O   0  0  0  0  0  0  0  0  0  0  0  0
  -16.5700   -0.3390   -7.8260 N   0  0  0  0  0  0  0  0  0  0  0  0
  -17.4440    0.0950   -6.7790 C   0  0  0  0  0  0  0  0  0  0  0  0
  -18.6920    0.8720   -7.0960 C   0  0  0  0  0  0  0  0  0  0  0  0
  -18.7960   -0.5410   -6.5980 C   0  0  0  0  0  0  0  0  0  0  0  0
  -12.6240   -0.2210  -10.1760 C   0  0  0  0  0  0  0  0  0  0  0  0
  -12.3280   -1.6110   -9.1870 Cl  0  0  0  0  0  0  0  0  0  0  0  0
  -11.5740    0.2580  -10.9630 C   0  0  0  0  0  0  0  0  0  0  0  0
  -10.0730    2.7930  -14.6030 C   0  0  0  0  0  0  0  0  0  0  0  0
   -8.9950    1.9020  -14.8060 C   0  0  0  0  0  0  0  0  0  0  0  0
   -8.2070    1.9870  -15.9590 C   0  0  0  0  0  0  0  0  0  0  0  0
   -7.0950    1.0280  -16.1520 C   0  0  0  0  0  0  0  0  0  0  0  0
   -7.1640    0.2480  -17.2750 N   0  0  0  0  0  0  0  0  0  0  0  0
   -6.1590    0.9410  -15.3700 O   0  0  0  0  0  0  0  0  0  0  0  0
   -6.8650    4.6395  -16.8977 H   0  0  0  0  0  0  0  0  0  0  0  0
   -6.0439    4.2671  -18.4514 H   0  0  0  0  0  0  0  0  0  0  0  0
   -7.6091    5.1486  -18.4514 H   0  0  0  0  0  0  0  0  0  0  0  0
   -9.7688    4.6217  -17.4585 H   0  0  0  0  0  0  0  0  0  0  0  0
  -12.9776    5.2902  -14.2317 H   0  0  0  0  0  0  0  0  0  0  0  0
  -12.6283    3.6141  -12.4543 H   0  0  0  0  0  0  0  0  0  0  0  0
  -13.1664    2.8945  -12.4257 H   0  0  0  0  0  0  0  0  0  0  0  0
  -15.0407    2.0304  -11.0261 H   0  0  0  0  0  0  0  0  0  0  0  0
  -15.0560   -1.1230   -9.4620 H   0  0  0  0  0  0  0  0  0  0  0  0
  -16.9160   -1.0580   -8.4450 H   0  0  0  0  0  0  0  0  0  0  0  0
  -16.5678    0.2590   -6.1345 H   0  0  0  0  0  0  0  0  0  0  0  0
  -18.9990    1.7069   -6.4490 H   0  0  0  0  0  0  0  0  0  0  0  0
  -19.0667    1.4156   -7.9758 H   0  0  0  0  0  0  0  0  0  0  0  0
  -19.1788   -0.7408   -5.5863 H   0  0  0  0  0  0  0  0  0  0  0  0
  -19.2780   -1.4604   -6.9620 H   0  0  0  0  0  0  0  0  0  0  0  0
  -10.5920   -0.2368  -10.9345 H   0  0  0  0  0  0  0  0  0  0  0  0
   -8.7733    1.1342  -14.0502 H   0  0  0  0  0  0  0  0  0  0  0  0
   -8.0280    0.1330  -17.7870 H   0  0  0  0  0  0  0  0  0  0  0  0
   -6.4780   -0.4950  -17.3380 H   0  0  0  0  0  0  0  0  0  0  0  0
  1  2  1  0
  2  3  1  0
  3  4  1  0
  4  5  2  0
  5  6  1  0
  6  7  2  0
  7  8  1  0
  8  9  2  0
  9 10  1  0
 10 11  1  0
 11 12  1  0
 12 13  2  0
 13 14  1  0
 14 15  1  0
 15 16  1  0
 16 17  2  0
 16 18  1  0
 18 19  1  0
 19 20  1  0
 20 21  1  0
 14 22  2  0
 22 23  1  0
 22 24  1  0
  9 25  1  0
 25 26  2  0
 26 27  1  0
 27 28  1  0
 28 29  1  0
 28 30  2  0
 27  3  2  0
 25  5  1  0
 24 11  2  0
 21 19  1  0
  1 31  1  0
  1 32  1  0
  1 33  1  0
  4 34  1  0
  7 35  1  0
  8 36  1  0
 12 37  1  0
 13 38  1  0
 15 39  1  0
 18 40  1  0
 19 41  1  0
 20 42  1  0
 20 43  1  0
 21 44  1  0
 21 45  1  0
 24 46  1  0
 26 47  1  0
 29 48  1  0
 29 49  1  0
M  END
>  <meeko>  (2) 
{"is_sidechain": false}

>  <vina_affinity_kcal_mol>  (2) 
-8.093

>  <pose_rank>  (2) 
2

$$$$

     RDKit          3D

 49 52  0  0  0  0  0  0  0  0999 V2000
   -7.3780    4.2780  -18.1860 C   0  0  0  0  0  0  0  0  0  0  0  0
   -8.8050    4.2440  -18.1440 O   0  0  0  0  0  0  0  0  0  0  0  0
   -9.2390    3.7510  -16.9410 C   0  0  0  0  0  0  0  0  0  0  0  0
   -8.8920    2.4430  -16.5910 C   0  0  0  0  0  0  0  0  0  0  0  0
   -9.3580    1.8530  -15.4250 C   0  0  0  0  0  0  0  0  0  0  0  0
   -8.9750    0.5980  -15.1340 N   0  0  0  0  0  0  0  0  0  0  0  0
   -9.4180    0.0350  -13.9890 C   0  0  0  0  0  0  0  0  0  0  0  0
  -10.2570    0.6700  -13.1000 C   0  0  0  0  0  0  0  0  0  0  0  0
  -10.6740    1.9570  -13.4200 C   0  0  0  0  0  0  0  0  0  0  0  0
  -11.4870    2.6540  -12.5500 O   0  0  0  0  0  0  0  0  0  0  0  0
  -12.3870    1.9250  -11.8030 C   0  0  0  0  0  0  0  0  0  0  0  0
  -13.7600    2.1740  -11.7810 C   0  0  0  0  0  0  0  0  0  0  0  0
  -14.6010    1.4110  -10.9630 C   0  0  0  0  0  0  0  0  0  0  0  0
  -14.0800    0.4030  -10.1480 C   0  0  0  0  0  0  0  0  0  0  0  0
  -14.8820   -0.4040   -9.3070 N   0  0  0  0  0  0  0  0  0  0  0  0
  -15.5390   -0.0370   -8.1520 C   0  0  0  0  0  0  0  0  0  0  0  0
  -15.4860    1.0570   -7.6050 O   0  0  0  0  0  0  0  0  0  0  0  0
  -16.2800   -1.0950   -7.6480 N   0  0  0  0  0  0  0  0  0  0  0  0
  -17.0880   -0.9510   -6.4760 C   0  0  0  0  0  0  0  0  0  0  0  0
  -18.5300   -0.5400   -6.5860 C   0  0  0  0  0  0  0  0  0  0  0  0
  -18.1810   -1.9400   -6.1730 C   0  0  0  0  0  0  0  0  0  0  0  0
  -12.6920    0.1720  -10.1740 C   0  0  0  0  0  0  0  0  0  0  0  0
  -11.9760   -1.0630   -9.1920 Cl  0  0  0  0  0  0  0  0  0  0  0  0
  -11.8490    0.9330  -10.9870 C   0  0  0  0  0  0  0  0  0  0  0  0
  -10.2170    2.5950  -14.5880 C   0  0  0  0  0  0  0  0  0  0  0  0
  -10.5860    3.9100  -14.9510 C   0  0  0  0  0  0  0  0  0  0  0  0
  -10.1040    4.4850  -16.1320 C   0  0  0  0  0  0  0  0  0  0  0  0
  -10.4940    5.8720  -16.4780 C   0  0  0  0  0  0  0  0  0  0  0  0
   -9.4650    6.7390  -16.7290 N   0  0  0  0  0  0  0  0  0  0  0  0
  -11.6620    6.2280  -16.5500 O   0  0  0  0  0  0  0  0  0  0  0  0
   -6.9811    4.2875  -17.1601 H   0  0  0  0  0  0  0  0  0  0  0  0
   -7.0054    3.3885  -18.7151 H   0  0  0  0  0  0  0  0  0  0  0  0
   -7.0482    5.1843  -18.7151 H   0  0  0  0  0  0  0  0  0  0  0  0
   -8.2327    1.8668  -17.2569 H   0  0  0  0  0  0  0  0  0  0  0  0
   -9.0903   -0.9882  -13.7531 H   0  0  0  0  0  0  0  0  0  0  0  0
  -10.5845    0.1776  -12.1725 H   0  0  0  0  0  0  0  0  0  0  0  0
  -14.1825    2.9725  -12.4086 H   0  0  0  0  0  0  0  0  0  0  0  0
  -15.6834    1.6070  -10.9618 H   0  0  0  0  0  0  0  0  0  0  0  0
  -14.8520   -1.3960   -9.5070 H   0  0  0  0  0  0  0  0  0  0  0  0
  -16.5560   -1.8040   -8.3120 H   0  0  0  0  0  0  0  0  0  0  0  0
  -16.2093   -0.5711   -5.9342 H   0  0  0  0  0  0  0  0  0  0  0  0
  -18.9600    0.1583   -5.8529 H   0  0  0  0  0  0  0  0  0  0  0  0
  -19.1532   -0.0953   -7.3758 H   0  0  0  0  0  0  0  0  0  0  0  0
  -18.3548   -2.2673   -5.1373 H   0  0  0  0  0  0  0  0  0  0  0  0
  -18.4422   -2.9455   -6.5347 H   0  0  0  0  0  0  0  0  0  0  0  0
  -10.7644    0.7495  -10.9828 H   0  0  0  0  0  0  0  0  0  0  0  0
  -11.2584    4.4869  -14.2990 H   0  0  0  0  0  0  0  0  0  0  0  0
   -8.5180    6.5360  -16.4400 H   0  0  0  0  0  0  0  0  0  0  0  0
   -9.7240    7.7120  -16.8350 H   0  0  0  0  0  0  0  0  0  0  0  0
  1  2  1  0
  2  3  1  0
  3  4  1  0
  4  5  2  0
  5  6  1  0
  6  7  2  0
  7  8  1  0
  8  9  2  0
  9 10  1  0
 10 11  1  0
 11 12  1  0
 12 13  2  0
 13 14  1  0
 14 15  1  0
 15 16  1  0
 16 17  2  0
 16 18  1  0
 18 19  1  0
 19 20  1  0
 20 21  1  0
 14 22  2  0
 22 23  1  0
 22 24  1  0
  9 25  1  0
 25 26  2  0
 26 27  1  0
 27 28  1  0
 28 29  1  0
 28 30  2  0
 27  3  2  0
 25  5  1  0
 24 11  2  0
 21 19  1  0
  1 31  1  0
  1 32  1  0
  1 33  1  0
  4 34  1  0
  7 35  1  0
  8 36  1  0
 12 37  1  0
 13 38  1  0
 15 39  1  0
 18 40  1  0
 19 41  1  0
 20 42  1  0
 20 43  1  0
 21 44  1  0
 21 45  1  0
 24 46  1  0
 26 47  1  0
 29 48  1  0
 29 49  1  0
M  END
>  <meeko>  (3) 
{"is_sidechain": false}

>  <vina_affinity_kcal_mol>  (3) 
-7.907

>  <pose_rank>  (3) 
3

$$$$

     RDKit          3D

 49 52  0  0  0  0  0  0  0  0999 V2000
  -13.7420    2.8640  -12.6250 C   0  0  0  0  0  0  0  0  0  0  0  0
  -12.4090    2.4410  -12.3350 O   0  0  0  0  0  0  0  0  0  0  0  0
  -11.5800    2.7080  -13.3930 C   0  0  0  0  0  0  0  0  0  0  0  0
  -11.6800    3.9510  -14.0240 C   0  0  0  0  0  0  0  0  0  0  0  0
  -10.9260    4.2610  -15.1460 C   0  0  0  0  0  0  0  0  0  0  0  0
  -11.0550    5.4800  -15.6980 N   0  0  0  0  0  0  0  0  0  0  0  0
  -10.3060    5.7820  -16.7810 C   0  0  0  0  0  0  0  0  0  0  0  0
   -9.4210    4.9050  -17.3680 C   0  0  0  0  0  0  0  0  0  0  0  0
   -9.3150    3.6340  -16.8110 C   0  0  0  0  0  0  0  0  0  0  0  0
   -8.4200    2.7260  -17.3360 O   0  0  0  0  0  0  0  0  0  0  0  0
   -7.4630    2.2150  -16.4860 C   0  0  0  0  0  0  0  0  0  0  0  0
   -6.6580    3.0010  -15.6610 C   0  0  0  0  0  0  0  0  0  0  0  0
   -5.6820    2.4050  -14.8540 C   0  0  0  0  0  0  0  0  0  0  0  0
   -5.4880    1.0210  -14.8750 C   0  0  0  0  0  0  0  0  0  0  0  0
   -4.5230    0.3630  -14.0770 N   0  0  0  0  0  0  0  0  0  0  0  0
   -4.7140   -0.2930  -12.8800 C   0  0  0  0  0  0  0  0  0  0  0  0
   -5.7630   -0.3640  -12.2530 O   0  0  0  0  0  0  0  0  0  0  0  0
   -3.5330   -0.8700  -12.4390 N   0  0  0  0  0  0  0  0  0  0  0  0
   -3.4830   -1.6470  -11.2380 C   0  0  0  0  0  0  0  0  0  0  0  0
   -3.7170   -3.1310  -11.2760 C   0  0  0  0  0  0  0  0  0  0  0  0
   -2.3440   -2.5970  -10.9880 C   0  0  0  0  0  0  0  0  0  0  0  0
   -6.3010    0.2440  -15.7200 C   0  0  0  0  0  0  0  0  0  0  0  0
   -6.1190   -1.4770  -15.7960 Cl  0  0  0  0  0  0  0  0  0  0  0  0
   -7.2750    0.8350  -16.5280 C   0  0  0  0  0  0  0  0  0  0  0  0
  -10.0540    3.2830  -15.6660 C   0  0  0  0  0  0  0  0  0  0  0  0
   -9.9670    2.0180  -15.0430 C   0  0  0  0  0  0  0  0  0  0  0  0
  -10.7360    1.7270  -13.9110 C   0  0  0  0  0  0  0  0  0  0  0  0
  -10.6100    0.3980  -13.2680 C   0  0  0  0  0  0  0  0  0  0  0  0
  -10.5630    0.3960  -11.9000 N   0  0  0  0  0  0  0  0  0  0  0  0
  -10.5660   -0.6420  -13.9100 O   0  0  0  0  0  0  0  0  0  0  0  0
  -14.2849    3.0363  -11.6840 H   0  0  0  0  0  0  0  0  0  0  0  0
  -13.7122    3.7968  -13.2072 H   0  0  0  0  0  0  0  0  0  0  0  0
  -14.2555    2.0847  -13.2072 H   0  0  0  0  0  0  0  0  0  0  0  0
  -12.3744    4.7026  -13.6205 H   0  0  0  0  0  0  0  0  0  0  0  0
  -10.4088    6.7858  -17.2191 H   0  0  0  0  0  0  0  0  0  0  0  0
   -8.8215    5.1976  -18.2427 H   0  0  0  0  0  0  0  0  0  0  0  0
   -6.7908    4.0928  -15.6447 H   0  0  0  0  0  0  0  0  0  0  0  0
   -5.0615    3.0320  -14.1968 H   0  0  0  0  0  0  0  0  0  0  0  0
   -3.5610    0.5160  -14.3530 H   0  0  0  0  0  0  0  0  0  0  0  0
   -2.8430   -1.0760  -13.1480 H   0  0  0  0  0  0  0  0  0  0  0  0
   -3.9274   -0.8028  -10.6904 H   0  0  0  0  0  0  0  0  0  0  0  0
   -4.2966   -3.6168  -10.4772 H   0  0  0  0  0  0  0  0  0  0  0  0
   -4.1399   -3.8326  -12.0101 H   0  0  0  0  0  0  0  0  0  0  0  0
   -1.9179   -2.6912   -9.9783 H   0  0  0  0  0  0  0  0  0  0  0  0
   -1.3448   -2.7450  -11.4235 H   0  0  0  0  0  0  0  0  0  0  0  0
   -7.8910    0.2137  -17.1947 H   0  0  0  0  0  0  0  0  0  0  0  0
   -9.2884    1.2548  -15.4517 H   0  0  0  0  0  0  0  0  0  0  0  0
  -10.3540    1.2350  -11.3760 H   0  0  0  0  0  0  0  0  0  0  0  0
  -10.3450   -0.4930  -11.4680 H   0  0  0  0  0  0  0  0  0  0  0  0
  1  2  1  0
  2  3  1  0
  3  4  1  0
  4  5  2  0
  5  6  1  0
  6  7  2  0
  7  8  1  0
  8  9  2  0
  9 10  1  0
 10 11  1  0
 11 12  1  0
 12 13  2  0
 13 14  1  0
 14 15  1  0
 15 16  1  0
 16 17  2  0
 16 18  1  0
 18 19  1  0
 19 20  1  0
 20 21  1  0
 14 22  2  0
 22 23  1  0
 22 24  1  0
  9 25  1  0
 25 26  2  0
 26 27  1  0
 27 28  1  0
 28 29  1  0
 28 30  2  0
 27  3  2  0
 25  5  1  0
 24 11  2  0
 21 19  1  0
  1 31  1  0
  1 32  1  0
  1 33  1  0
  4 34  1  0
  7 35  1  0
  8 36  1  0
 12 37  1  0
 13 38  1  0
 15 39  1  0
 18 40  1  0
 19 41  1  0
 20 42  1  0
 20 43  1  0
 21 44  1  0
 21 45  1  0
 24 46  1  0
 26 47  1  0
 29 48  1  0
 29 49  1  0
M  END
>  <meeko>  (4) 
{"is_sidechain": false}

>  <vina_affinity_kcal_mol>  (4) 
-7.905

>  <pose_rank>  (4) 
4

$$$$

     RDKit          3D

 49 52  0  0  0  0  0  0  0  0999 V2000
   -1.0700   -2.7390  -17.1600 C   0  0  0  0  0  0  0  0  0  0  0  0
   -2.1370   -2.0860  -17.8510 O   0  0  0  0  0  0  0  0  0  0  0  0
   -2.8930   -1.3480  -16.9780 C   0  0  0  0  0  0  0  0  0  0  0  0
   -3.7560   -2.0210  -16.1080 C   0  0  0  0  0  0  0  0  0  0  0  0
   -4.6050   -1.3360  -15.2500 C   0  0  0  0  0  0  0  0  0  0  0  0
   -5.3990   -2.0400  -14.4240 N   0  0  0  0  0  0  0  0  0  0  0  0
   -6.2110   -1.3680  -13.5800 C   0  0  0  0  0  0  0  0  0  0  0  0
   -6.2870    0.0070  -13.5230 C   0  0  0  0  0  0  0  0  0  0  0  0
   -5.4850    0.7290  -14.4000 C   0  0  0  0  0  0  0  0  0  0  0  0
   -5.4930    2.1080  -14.3640 O   0  0  0  0  0  0  0  0  0  0  0  0
   -6.1450    2.7640  -15.3860 C   0  0  0  0  0  0  0  0  0  0  0  0
   -5.4930    3.4960  -16.3800 C   0  0  0  0  0  0  0  0  0  0  0  0
   -6.2330    4.1660  -17.3610 C   0  0  0  0  0  0  0  0  0  0  0  0
   -7.6300    4.1270  -17.3510 C   0  0  0  0  0  0  0  0  0  0  0  0
   -8.4280    4.7790  -18.3200 N   0  0  0  0  0  0  0  0  0  0  0  0
   -8.9590    6.0500  -18.2680 C   0  0  0  0  0  0  0  0  0  0  0  0
   -8.8850    6.8280  -17.3250 O   0  0  0  0  0  0  0  0  0  0  0  0
   -9.6290    6.3540  -19.4430 N   0  0  0  0  0  0  0  0  0  0  0  0
  -10.2300    7.6360  -19.6510 C   0  0  0  0  0  0  0  0  0  0  0  0
   -9.3910    8.8200  -20.0430 C   0  0  0  0  0  0  0  0  0  0  0  0
  -10.3400    8.2140  -21.0360 C   0  0  0  0  0  0  0  0  0  0  0  0
   -8.2720    3.3940  -16.3360 C   0  0  0  0  0  0  0  0  0  0  0  0
  -10.0000    3.2990  -16.2630 Cl  0  0  0  0  0  0  0  0  0  0  0  0
   -7.5370    2.7250  -15.3540 C   0  0  0  0  0  0  0  0  0  0  0  0
   -4.6020    0.0730  -15.2790 C   0  0  0  0  0  0  0  0  0  0  0  0
   -3.7460    0.7550  -16.1730 C   0  0  0  0  0  0  0  0  0  0  0  0
   -2.8980    0.0440  -17.0290 C   0  0  0  0  0  0  0  0  0  0  0  0
   -1.9980    0.7870  -17.9430 C   0  0  0  0  0  0  0  0  0  0  0  0
   -2.4180    0.8930  -19.2420 N   0  0  0  0  0  0  0  0  0  0  0  0
   -0.9490    1.2900  -17.5670 O   0  0  0  0  0  0  0  0  0  0  0  0
   -1.2240   -2.6448  -16.0749 H   0  0  0  0  0  0  0  0  0  0  0  0
   -1.0512   -3.8035  -17.4366 H   0  0  0  0  0  0  0  0  0  0  0  0
   -0.1136   -2.2713  -17.4366 H   0  0  0  0  0  0  0  0  0  0  0  0
   -3.7623   -3.1210  -16.1034 H   0  0  0  0  0  0  0  0  0  0  0  0
   -6.8482   -1.9513  -12.8990 H   0  0  0  0  0  0  0  0  0  0  0  0
   -6.9559    0.5134  -12.8116 H   0  0  0  0  0  0  0  0  0  0  0  0
   -4.3942    3.5463  -16.3922 H   0  0  0  0  0  0  0  0  0  0  0  0
   -5.7097    4.7290  -18.1479 H   0  0  0  0  0  0  0  0  0  0  0  0
   -8.7590    4.1880  -19.0720 H   0  0  0  0  0  0  0  0  0  0  0  0
   -9.3450    5.8410  -20.2660 H   0  0  0  0  0  0  0  0  0  0  0  0
  -10.9396    7.4196  -18.8388 H   0  0  0  0  0  0  0  0  0  0  0  0
   -9.6031    9.8103  -19.6136 H   0  0  0  0  0  0  0  0  0  0  0  0
   -8.3146    9.0465  -20.0350 H   0  0  0  0  0  0  0  0  0  0  0  0
  -11.2473    8.7600  -21.3336 H   0  0  0  0  0  0  0  0  0  0  0  0
  -10.2469    7.8127  -22.0559 H   0  0  0  0  0  0  0  0  0  0  0  0
   -8.0556    2.1696  -14.5586 H   0  0  0  0  0  0  0  0  0  0  0  0
   -3.7464    1.8548  -16.1961 H   0  0  0  0  0  0  0  0  0  0  0  0
   -3.1380    0.2900  -19.6170 H   0  0  0  0  0  0  0  0  0  0  0  0
   -1.7470    1.2830  -19.8920 H   0  0  0  0  0  0  0  0  0  0  0  0
  1  2  1  0
  2  3  1  0
  3  4  1  0
  4  5  2  0
  5  6  1  0
  6  7  2  0
  7  8  1  0
  8  9  2  0
  9 10  1  0
 10 11  1  0
 11 12  1  0
 12 13  2  0
 13 14  1  0
 14 15  1  0
 15 16  1  0
 16 17  2  0
 16 18  1  0
 18 19  1  0
 19 20  1  0
 20 21  1  0
 14 22  2  0
 22 23  1  0
 22 24  1  0
  9 25  1  0
 25 26  2  0
 26 27  1  0
 27 28  1  0
 28 29  1  0
 28 30  2  0
 27  3  2  0
 25  5  1  0
 24 11  2  0
 21 19  1  0
  1 31  1  0
  1 32  1  0
  1 33  1  0
  4 34  1  0
  7 35  1  0
  8 36  1  0
 12 37  1  0
 13 38  1  0
 15 39  1  0
 18 40  1  0
 19 41  1  0
 20 42  1  0
 20 43  1  0
 21 44  1  0
 21 45  1  0
 24 46  1  0
 26 47  1  0
 29 48  1  0
 29 49  1  0
M  END
>  <meeko>  (5) 
{"is_sidechain": false}

>  <vina_affinity_kcal_mol>  (5) 
-7.823

>  <pose_rank>  (5) 
5

$$$$

     RDKit          3D

 49 52  0  0  0  0  0  0  0  0999 V2000
   -8.5900    6.2440  -19.1970 C   0  0  0  0  0  0  0  0  0  0  0  0
   -7.7200    5.6040  -18.2620 O   0  0  0  0  0  0  0  0  0  0  0  0
   -8.4390    4.8280  -17.3910 C   0  0  0  0  0  0  0  0  0  0  0  0
   -9.6240    5.3420  -16.8580 C   0  0  0  0  0  0  0  0  0  0  0  0
  -10.3630    4.6430  -15.9150 C   0  0  0  0  0  0  0  0  0  0  0  0
  -11.5050    5.1840  -15.4540 N   0  0  0  0  0  0  0  0  0  0  0  0
  -12.2280    4.4910  -14.5480 C   0  0  0  0  0  0  0  0  0  0  0  0
  -11.8580    3.2600  -14.0530 C   0  0  0  0  0  0  0  0  0  0  0  0
  -10.6610    2.7190  -14.5110 C   0  0  0  0  0  0  0  0  0  0  0  0
  -10.2570    1.4740  -14.0770 O   0  0  0  0  0  0  0  0  0  0  0  0
  -10.8500    0.9780  -12.9350 C   0  0  0  0  0  0  0  0  0  0  0  0
  -11.7710    1.6910  -12.1660 C   0  0  0  0  0  0  0  0  0  0  0  0
  -12.2980    1.1290  -10.9970 C   0  0  0  0  0  0  0  0  0  0  0  0
  -11.8980   -0.1420  -10.5760 C   0  0  0  0  0  0  0  0  0  0  0  0
  -12.4010   -0.7630   -9.4090 N   0  0  0  0  0  0  0  0  0  0  0  0
  -13.6290   -1.3640   -9.2280 C   0  0  0  0  0  0  0  0  0  0  0  0
  -14.5420   -1.4060  -10.0420 O   0  0  0  0  0  0  0  0  0  0  0  0
  -13.7240   -1.9210   -7.9610 N   0  0  0  0  0  0  0  0  0  0  0  0
  -14.8890   -2.6420   -7.5470 C   0  0  0  0  0  0  0  0  0  0  0  0
  -14.8030   -4.1030   -7.2040 C   0  0  0  0  0  0  0  0  0  0  0  0
  -15.0420   -3.0930   -6.1200 C   0  0  0  0  0  0  0  0  0  0  0  0
  -10.9610   -0.8430  -11.3570 C   0  0  0  0  0  0  0  0  0  0  0  0
  -10.4230   -2.4240  -10.8980 Cl  0  0  0  0  0  0  0  0  0  0  0  0
  -10.4320   -0.2850  -12.5230 C   0  0  0  0  0  0  0  0  0  0  0  0
   -9.8870    3.3910  -15.4760 C   0  0  0  0  0  0  0  0  0  0  0  0
   -8.6780    2.8780  -15.9970 C   0  0  0  0  0  0  0  0  0  0  0  0
   -7.9480    3.6000  -16.9480 C   0  0  0  0  0  0  0  0  0  0  0  0
   -6.6930    3.0290  -17.4890 C   0  0  0  0  0  0  0  0  0  0  0  0
   -5.5630    3.7780  -17.2990 N   0  0  0  0  0  0  0  0  0  0  0  0
   -6.6550    1.9490  -18.0600 O   0  0  0  0  0  0  0  0  0  0  0  0
   -9.3601    6.8105  -18.6529 H   0  0  0  0  0  0  0  0  0  0  0  0
   -8.0077    6.9306  -19.8290 H   0  0  0  0  0  0  0  0  0  0  0  0
   -9.0721    5.4837  -19.8290 H   0  0  0  0  0  0  0  0  0  0  0  0
   -9.9801    6.3267  -17.1950 H   0  0  0  0  0  0  0  0  0  0  0  0
  -13.1664    4.9352  -14.1844 H   0  0  0  0  0  0  0  0  0  0  0  0
  -12.4847    2.7255  -13.3239 H   0  0  0  0  0  0  0  0  0  0  0  0
  -12.0839    2.6979  -12.4795 H   0  0  0  0  0  0  0  0  0  0  0  0
  -13.0335    1.6930  -10.4046 H   0  0  0  0  0  0  0  0  0  0  0  0
  -11.8450   -0.6240   -8.5740 H   0  0  0  0  0  0  0  0  0  0  0  0
  -12.8520   -2.1590   -7.5110 H   0  0  0  0  0  0  0  0  0  0  0  0
  -15.4921   -2.0401   -8.2426 H   0  0  0  0  0  0  0  0  0  0  0  0
  -15.6100   -4.7869   -7.5057 H   0  0  0  0  0  0  0  0  0  0  0  0
  -14.0636   -4.8993   -7.3751 H   0  0  0  0  0  0  0  0  0  0  0  0
  -16.0241   -3.0366   -5.6277 H   0  0  0  0  0  0  0  0  0  0  0  0
  -14.5505   -2.8426   -5.1683 H   0  0  0  0  0  0  0  0  0  0  0  0
   -9.6885   -0.8406  -13.1133 H   0  0  0  0  0  0  0  0  0  0  0  0
   -8.3069    1.9017  -15.6518 H   0  0  0  0  0  0  0  0  0  0  0  0
   -5.6110    4.7580  -17.0580 H   0  0  0  0  0  0  0  0  0  0  0  0
   -4.7330    3.4540  -17.7810 H   0  0  0  0  0  0  0  0  0  0  0  0
  1  2  1  0
  2  3  1  0
  3  4  1  0
  4  5  2  0
  5  6  1  0
  6  7  2  0
  7  8  1  0
  8  9  2  0
  9 10  1  0
 10 11  1  0
 11 12  1  0
 12 13  2  0
 13 14  1  0
 14 15  1  0
 15 16  1  0
 16 17  2  0
 16 18  1  0
 18 19  1  0
 19 20  1  0
 20 21  1  0
 14 22  2  0
 22 23  1  0
 22 24  1  0
  9 25  1  0
 25 26  2  0
 26 27  1  0
 27 28  1  0
 28 29  1  0
 28 30  2  0
 27  3  2  0
 25  5  1  0
 24 11  2  0
 21 19  1  0
  1 31  1  0
  1 32  1  0
  1 33  1  0
  4 34  1  0
  7 35  1  0
  8 36  1  0
 12 37  1  0
 13 38  1  0
 15 39  1  0
 18 40  1  0
 19 41  1  0
 20 42  1  0
 20 43  1  0
 21 44  1  0
 21 45  1  0
 24 46  1  0
 26 47  1  0
 29 48  1  0
 29 49  1  0
M  END
>  <meeko>  (6) 
{"is_sidechain": false}

>  <vina_affinity_kcal_mol>  (6) 
-7.725

>  <pose_rank>  (6) 
6

$$$$

     RDKit          3D

 49 52  0  0  0  0  0  0  0  0999 V2000
  -16.5880   -3.4360   -6.6020 C   0  0  0  0  0  0  0  0  0  0  0  0
  -16.8410   -2.6390   -7.7600 O   0  0  0  0  0  0  0  0  0  0  0  0
  -15.6740   -2.3850   -8.4320 C   0  0  0  0  0  0  0  0  0  0  0  0
  -15.1250   -3.3970   -9.2260 C   0  0  0  0  0  0  0  0  0  0  0  0
  -13.9090   -3.2360   -9.8740 C   0  0  0  0  0  0  0  0  0  0  0  0
  -13.4420   -4.2400  -10.6370 N   0  0  0  0  0  0  0  0  0  0  0  0
  -12.2660   -4.0710  -11.2780 C   0  0  0  0  0  0  0  0  0  0  0  0
  -11.5020   -2.9290  -11.1870 C   0  0  0  0  0  0  0  0  0  0  0  0
  -11.9750   -1.9050  -10.3720 C   0  0  0  0  0  0  0  0  0  0  0  0
  -11.2690   -0.7250  -10.2690 O   0  0  0  0  0  0  0  0  0  0  0  0
  -11.2330    0.0910  -11.3800 C   0  0  0  0  0  0  0  0  0  0  0  0
  -10.2800   -0.0190  -12.3930 C   0  0  0  0  0  0  0  0  0  0  0  0
  -10.2910    0.8760  -13.4700 C   0  0  0  0  0  0  0  0  0  0  0  0
  -11.2410    1.8980  -13.5380 C   0  0  0  0  0  0  0  0  0  0  0  0
  -11.3050    2.8260  -14.6030 N   0  0  0  0  0  0  0  0  0  0  0  0
  -10.2900    3.6100  -15.1090 C   0  0  0  0  0  0  0  0  0  0  0  0
   -9.1500    3.6900  -14.6700 O   0  0  0  0  0  0  0  0  0  0  0  0
  -10.7290    4.3410  -16.2020 N   0  0  0  0  0  0  0  0  0  0  0  0
   -9.8460    5.1990  -16.9310 C   0  0  0  0  0  0  0  0  0  0  0  0
  -10.3360    5.9600  -18.1320 C   0  0  0  0  0  0  0  0  0  0  0  0
  -10.0040    6.6940  -16.8650 C   0  0  0  0  0  0  0  0  0  0  0  0
  -12.1880    2.0000  -12.5020 C   0  0  0  0  0  0  0  0  0  0  0  0
  -13.3980    3.2400  -12.5210 Cl  0  0  0  0  0  0  0  0  0  0  0  0
  -12.1800    1.1110  -11.4250 C   0  0  0  0  0  0  0  0  0  0  0  0
  -13.2090   -2.0240   -9.7050 C   0  0  0  0  0  0  0  0  0  0  0  0
  -13.7510   -1.0080   -8.8870 C   0  0  0  0  0  0  0  0  0  0  0  0
  -14.9800   -1.1920   -8.2430 C   0  0  0  0  0  0  0  0  0  0  0  0
  -15.5320   -0.1010   -7.4050 C   0  0  0  0  0  0  0  0  0  0  0  0
  -16.7950    0.3180   -7.7240 N   0  0  0  0  0  0  0  0  0  0  0  0
  -14.9110    0.3910   -6.4740 O   0  0  0  0  0  0  0  0  0  0  0  0
  -16.7774   -2.8392   -5.6976 H   0  0  0  0  0  0  0  0  0  0  0  0
  -17.2519   -4.3130   -6.6083 H   0  0  0  0  0  0  0  0  0  0  0  0
  -15.5398   -3.7695   -6.6083 H   0  0  0  0  0  0  0  0  0  0  0  0
  -15.6714   -4.3449   -9.3396 H   0  0  0  0  0  0  0  0  0  0  0  0
  -11.8969   -4.8927  -11.9092 H   0  0  0  0  0  0  0  0  0  0  0  0
  -10.5546   -2.8300  -11.7372 H   0  0  0  0  0  0  0  0  0  0  0  0
   -9.5180   -0.8109  -12.3456 H   0  0  0  0  0  0  0  0  0  0  0  0
   -9.5439    0.7732  -14.2708 H   0  0  0  0  0  0  0  0  0  0  0  0
  -12.2380    3.0340  -14.9370 H   0  0  0  0  0  0  0  0  0  0  0  0
  -11.5210    3.9650  -16.7030 H   0  0  0  0  0  0  0  0  0  0  0  0
   -9.0243    4.4934  -16.7387 H   0  0  0  0  0  0  0  0  0  0  0  0
   -9.6897    6.0682  -19.0155 H   0  0  0  0  0  0  0  0  0  0  0  0
  -11.2189    5.8968  -18.7851 H   0  0  0  0  0  0  0  0  0  0  0  0
   -9.1145    7.3395  -16.8204 H   0  0  0  0  0  0  0  0  0  0  0  0
  -10.5428    7.3907  -16.2059 H   0  0  0  0  0  0  0  0  0  0  0  0
  -12.9181    1.2160  -10.6162 H   0  0  0  0  0  0  0  0  0  0  0  0
  -13.2023   -0.0638   -8.7549 H   0  0  0  0  0  0  0  0  0  0  0  0
  -17.2150    0.1030   -8.6180 H   0  0  0  0  0  0  0  0  0  0  0  0
  -17.1200    1.1470   -7.2410 H   0  0  0  0  0  0  0  0  0  0  0  0
  1  2  1  0
  2  3  1  0
  3  4  1  0
  4  5  2  0
  5  6  1  0
  6  7  2  0
  7  8  1  0
  8  9  2  0
  9 10  1  0
 10 11  1  0
 11 12  1  0
 12 13  2  0
 13 14  1  0
 14 15  1  0
 15 16  1  0
 16 17  2  0
 16 18  1  0
 18 19  1  0
 19 20  1  0
 20 21  1  0
 14 22  2  0
 22 23  1  0
 22 24  1  0
  9 25  1  0
 25 26  2  0
 26 27  1  0
 27 28  1  0
 28 29  1  0
 28 30  2  0
 27  3  2  0
 25  5  1  0
 24 11  2  0
 21 19  1  0
  1 31  1  0
  1 32  1  0
  1 33  1  0
  4 34  1  0
  7 35  1  0
  8 36  1  0
 12 37  1  0
 13 38  1  0
 15 39  1  0
 18 40  1  0
 19 41  1  0
 20 42  1  0
 20 43  1  0
 21 44  1  0
 21 45  1  0
 24 46  1  0
 26 47  1  0
 29 48  1  0
 29 49  1  0
M  END
>  <meeko>  (7) 
{"is_sidechain": false}

>  <vina_affinity_kcal_mol>  (7) 
-7.719

>  <pose_rank>  (7) 
7

$$$$

     RDKit          3D

 49 52  0  0  0  0  0  0  0  0999 V2000
   -3.8560   -6.8630  -17.4600 C   0  0  0  0  0  0  0  0  0  0  0  0
   -4.0170   -6.3860  -16.1230 O   0  0  0  0  0  0  0  0  0  0  0  0
   -4.0030   -5.0170  -16.0970 C   0  0  0  0  0  0  0  0  0  0  0  0
   -2.9470   -4.3460  -16.7220 C   0  0  0  0  0  0  0  0  0  0  0  0
   -2.8290   -2.9650  -16.6710 C   0  0  0  0  0  0  0  0  0  0  0  0
   -1.8010   -2.3770  -17.3070 N   0  0  0  0  0  0  0  0  0  0  0  0
   -1.7010   -1.0310  -17.2680 C   0  0  0  0  0  0  0  0  0  0  0  0
   -2.5870   -0.2170  -16.5980 C   0  0  0  0  0  0  0  0  0  0  0  0
   -3.6320   -0.8320  -15.9170 C   0  0  0  0  0  0  0  0  0  0  0  0
   -4.5700   -0.0660  -15.2580 O   0  0  0  0  0  0  0  0  0  0  0  0
   -5.3170    0.8120  -16.0140 C   0  0  0  0  0  0  0  0  0  0  0  0
   -6.3480    0.4180  -16.8680 C   0  0  0  0  0  0  0  0  0  0  0  0
   -7.0330    1.3700  -17.6320 C   0  0  0  0  0  0  0  0  0  0  0  0
   -6.6850    2.7220  -17.5640 C   0  0  0  0  0  0  0  0  0  0  0  0
   -7.3450    3.7290  -18.3070 N   0  0  0  0  0  0  0  0  0  0  0  0
   -8.4230    4.4980  -17.9230 C   0  0  0  0  0  0  0  0  0  0  0  0
   -9.0510    4.3950  -16.8770 O   0  0  0  0  0  0  0  0  0  0  0  0
   -8.7400    5.4260  -18.9040 N   0  0  0  0  0  0  0  0  0  0  0  0
   -9.7970    6.3740  -18.7220 C   0  0  0  0  0  0  0  0  0  0  0  0
   -9.5530    7.6610  -17.9840 C   0  0  0  0  0  0  0  0  0  0  0  0
   -9.7890    7.6820  -19.4660 C   0  0  0  0  0  0  0  0  0  0  0  0
   -5.6360    3.1010  -16.7060 C   0  0  0  0  0  0  0  0  0  0  0  0
   -5.1520    4.7580  -16.5690 Cl  0  0  0  0  0  0  0  0  0  0  0  0
   -4.9490    2.1530  -15.9440 C   0  0  0  0  0  0  0  0  0  0  0  0
   -3.7940   -2.2300  -15.9520 C   0  0  0  0  0  0  0  0  0  0  0  0
   -4.8500   -2.9070  -15.3010 C   0  0  0  0  0  0  0  0  0  0  0  0
   -4.9500   -4.3010  -15.3660 C   0  0  0  0  0  0  0  0  0  0  0  0
   -6.0780   -4.9820  -14.6890 C   0  0  0  0  0  0  0  0  0  0  0  0
   -6.7330   -5.9330  -15.4240 N   0  0  0  0  0  0  0  0  0  0  0  0
   -6.4040   -4.7280  -13.5380 O   0  0  0  0  0  0  0  0  0  0  0  0
   -3.5043   -7.9050  -17.4377 H   0  0  0  0  0  0  0  0  0  0  0  0
   -4.8209   -6.8129  -17.9859 H   0  0  0  0  0  0  0  0  0  0  0  0
   -3.1189   -6.2384  -17.9859 H   0  0  0  0  0  0  0  0  0  0  0  0
   -2.1905   -4.9286  -17.2681 H   0  0  0  0  0  0  0  0  0  0  0  0
   -0.8639   -0.5576  -17.8020 H   0  0  0  0  0  0  0  0  0  0  0  0
   -2.4726    0.8770  -16.6014 H   0  0  0  0  0  0  0  0  0  0  0  0
   -6.6233   -0.6445  -16.9410 H   0  0  0  0  0  0  0  0  0  0  0  0
   -7.8530    1.0511  -18.2922 H   0  0  0  0  0  0  0  0  0  0  0  0
   -7.0790    3.7880  -19.2810 H   0  0  0  0  0  0  0  0  0  0  0  0
   -7.9940    5.6860  -19.5330 H   0  0  0  0  0  0  0  0  0  0  0  0
  -10.5075    5.5405  -18.6195 H   0  0  0  0  0  0  0  0  0  0  0  0
  -10.3185    8.0560  -17.2998 H   0  0  0  0  0  0  0  0  0  0  0  0
   -8.7627    8.0369  -17.3175 H   0  0  0  0  0  0  0  0  0  0  0  0
  -10.7274    8.0919  -19.8677 H   0  0  0  0  0  0  0  0  0  0  0  0
   -9.2435    8.0792  -20.3347 H   0  0  0  0  0  0  0  0  0  0  0  0
   -4.1204    2.4648  -15.2911 H   0  0  0  0  0  0  0  0  0  0  0  0
   -5.6003   -2.3326  -14.7379 H   0  0  0  0  0  0  0  0  0  0  0  0
   -6.6410   -5.9810  -16.4300 H   0  0  0  0  0  0  0  0  0  0  0  0
   -7.5810   -6.3020  -15.0120 H   0  0  0  0  0  0  0  0  0  0  0  0
  1  2  1  0
  2  3  1  0
  3  4  1  0
  4  5  2  0
  5  6  1  0
  6  7  2  0
  7  8  1  0
  8  9  2  0
  9 10  1  0
 10 11  1  0
 11 12  1  0
 12 13  2  0
 13 14  1  0
 14 15  1  0
 15 16  1  0
 16 17  2  0
 16 18  1  0
 18 19  1  0
 19 20  1  0
 20 21  1  0
 14 22  2  0
 22 23  1  0
 22 24  1  0
  9 25  1  0
 25 26  2  0
 26 27  1  0
 27 28  1  0
 28 29  1  0
 28 30  2  0
 27  3  2  0
 25  5  1  0
 24 11  2  0
 21 19  1  0
  1 31  1  0
  1 32  1  0
  1 33  1  0
  4 34  1  0
  7 35  1  0
  8 36  1  0
 12 37  1  0
 13 38  1  0
 15 39  1  0
 18 40  1  0
 19 41  1  0
 20 42  1  0
 20 43  1  0
 21 44  1  0
 21 45  1  0
 24 46  1  0
 26 47  1  0
 29 48  1  0
 29 49  1  0
M  END
>  <meeko>  (8) 
{"is_sidechain": false}

>  <vina_affinity_kcal_mol>  (8) 
-7.672

>  <pose_rank>  (8) 
8

$$$$

     RDKit          3D

 49 52  0  0  0  0  0  0  0  0999 V2000
  -12.7210    0.5890   -6.4570 C   0  0  0  0  0  0  0  0  0  0  0  0
  -13.1590   -0.6180   -7.0830 O   0  0  0  0  0  0  0  0  0  0  0  0
  -12.4240   -0.8670   -8.2120 C   0  0  0  0  0  0  0  0  0  0  0  0
  -11.0880   -1.2510   -8.0700 C   0  0  0  0  0  0  0  0  0  0  0  0
  -10.2640   -1.4460   -9.1690 C   0  0  0  0  0  0  0  0  0  0  0  0
   -8.9930   -1.8320   -8.9670 N   0  0  0  0  0  0  0  0  0  0  0  0
   -8.2010   -2.0370  -10.0410 C   0  0  0  0  0  0  0  0  0  0  0  0
   -8.6160   -1.8590  -11.3430 C   0  0  0  0  0  0  0  0  0  0  0  0
   -9.9240   -1.4310  -11.5450 C   0  0  0  0  0  0  0  0  0  0  0  0
  -10.4050   -1.2690  -12.8270 O   0  0  0  0  0  0  0  0  0  0  0  0
  -10.1550   -0.0650  -13.4510 C   0  0  0  0  0  0  0  0  0  0  0  0
   -8.9260    0.2750  -14.0180 C   0  0  0  0  0  0  0  0  0  0  0  0
   -8.7440    1.5360  -14.5990 C   0  0  0  0  0  0  0  0  0  0  0  0
   -9.7790    2.4740  -14.6050 C   0  0  0  0  0  0  0  0  0  0  0  0
   -9.6550    3.7590  -15.1830 N   0  0  0  0  0  0  0  0  0  0  0  0
   -9.3730    4.0770  -16.4950 C   0  0  0  0  0  0  0  0  0  0  0  0
   -9.1090    3.2860  -17.3910 O   0  0  0  0  0  0  0  0  0  0  0  0
   -9.4040    5.4500  -16.6870 N   0  0  0  0  0  0  0  0  0  0  0  0
   -9.1860    6.0290  -17.9780 C   0  0  0  0  0  0  0  0  0  0  0  0
  -10.3480    6.3530  -18.8770 C   0  0  0  0  0  0  0  0  0  0  0  0
   -9.5570    7.4620  -18.2460 C   0  0  0  0  0  0  0  0  0  0  0  0
  -11.0080    2.1180  -14.0190 C   0  0  0  0  0  0  0  0  0  0  0  0
  -12.3370    3.2300  -13.9930 Cl  0  0  0  0  0  0  0  0  0  0  0  0
  -11.1940    0.8620  -13.4370 C   0  0  0  0  0  0  0  0  0  0  0  0
  -10.7950   -1.2310  -10.4570 C   0  0  0  0  0  0  0  0  0  0  0  0
  -12.1390   -0.8220  -10.6030 C   0  0  0  0  0  0  0  0  0  0  0  0
  -12.9520   -0.6310   -9.4810 C   0  0  0  0  0  0  0  0  0  0  0  0
  -14.3630   -0.2200   -9.6660 C   0  0  0  0  0  0  0  0  0  0  0  0
  -15.3090   -1.1170   -9.2470 N   0  0  0  0  0  0  0  0  0  0  0  0
  -14.6760    0.8590  -10.1490 O   0  0  0  0  0  0  0  0  0  0  0  0
  -12.7636    0.4716   -5.3641 H   0  0  0  0  0  0  0  0  0  0  0  0
  -11.6868    0.8061   -6.7624 H   0  0  0  0  0  0  0  0  0  0  0  0
  -13.3753    1.4188   -6.7624 H   0  0  0  0  0  0  0  0  0  0  0  0
  -10.6788   -1.4027   -7.0603 H   0  0  0  0  0  0  0  0  0  0  0  0
   -7.1655   -2.3648   -9.8669 H   0  0  0  0  0  0  0  0  0  0  0  0
   -7.9394   -2.0480  -12.1894 H   0  0  0  0  0  0  0  0  0  0  0  0
   -8.0982   -0.4494  -14.0085 H   0  0  0  0  0  0  0  0  0  0  0  0
   -7.7760    1.7905  -15.0554 H   0  0  0  0  0  0  0  0  0  0  0  0
   -9.6350    4.5270  -14.5240 H   0  0  0  0  0  0  0  0  0  0  0  0
   -9.9610    5.9810  -16.0340 H   0  0  0  0  0  0  0  0  0  0  0  0
   -8.2682    5.4307  -18.0768 H   0  0  0  0  0  0  0  0  0  0  0  0
  -10.2732    6.1712  -19.9593 H   0  0  0  0  0  0  0  0  0  0  0  0
  -11.4118    6.0744  -18.9034 H   0  0  0  0  0  0  0  0  0  0  0  0
   -8.9029    8.0925  -18.8661 H   0  0  0  0  0  0  0  0  0  0  0  0
   -9.8016    8.3320  -17.6189 H   0  0  0  0  0  0  0  0  0  0  0  0
  -12.1565    0.6064  -12.9699 H   0  0  0  0  0  0  0  0  0  0  0  0
  -12.5503   -0.6520  -11.6089 H   0  0  0  0  0  0  0  0  0  0  0  0
  -15.0820   -2.0870   -9.0800 H   0  0  0  0  0  0  0  0  0  0  0  0
  -16.2660   -0.8950   -9.4930 H   0  0  0  0  0  0  0  0  0  0  0  0
  1  2  1  0
  2  3  1  0
  3  4  1  0
  4  5  2  0
  5  6  1  0
  6  7  2  0
  7  8  1  0
  8  9  2  0
  9 10  1  0
 10 11  1  0
 11 12  1  0
 12 13  2  0
 13 14  1  0
 14 15  1  0
 15 16  1  0
 16 17  2  0
 16 18  1  0
 18 19  1  0
 19 20  1  0
 20 21  1  0
 14 22  2  0
 22 23  1  0
 22 24  1  0
  9 25  1  0
 25 26  2  0
 26 27  1  0
 27 28  1  0
 28 29  1  0
 28 30  2  0
 27  3  2  0
 25  5  1  0
 24 11  2  0
 21 19  1  0
  1 31  1  0
  1 32  1  0
  1 33  1  0
  4 34  1  0
  7 35  1  0
  8 36  1  0
 12 37  1  0
 13 38  1  0
 15 39  1  0
 18 40  1  0
 19 41  1  0
 20 42  1  0
 20 43  1  0
 21 44  1  0
 21 45  1  0
 24 46  1  0
 26 47  1  0
 29 48  1  0
 29 49  1  0
M  END
>  <meeko>  (9) 
{"is_sidechain": false}

>  <vina_affinity_kcal_mol>  (9) 
-7.633

>  <pose_rank>  (9) 
9

$$$$

     RDKit          3D

 49 52  0  0  0  0  0  0  0  0999 V2000
   -9.8610    8.2310  -16.2680 C   0  0  0  0  0  0  0  0  0  0  0  0
  -10.3320    7.3400  -17.2810 O   0  0  0  0  0  0  0  0  0  0  0  0
  -10.2310    6.0400  -16.8610 C   0  0  0  0  0  0  0  0  0  0  0  0
  -10.9470    5.6460  -15.7270 C   0  0  0  0  0  0  0  0  0  0  0  0
  -10.8340    4.3670  -15.2020 C   0  0  0  0  0  0  0  0  0  0  0  0
  -11.5620    4.0430  -14.1190 N   0  0  0  0  0  0  0  0  0  0  0  0
  -11.4600    2.7910  -13.6230 C   0  0  0  0  0  0  0  0  0  0  0  0
  -10.6380    1.8210  -14.1540 C   0  0  0  0  0  0  0  0  0  0  0  0
   -9.8650    2.1710  -15.2560 C   0  0  0  0  0  0  0  0  0  0  0  0
   -9.0500    1.2310  -15.8510 O   0  0  0  0  0  0  0  0  0  0  0  0
   -7.8460    0.9590  -15.2390 C   0  0  0  0  0  0  0  0  0  0  0  0
   -7.0390    1.9300  -14.6450 C   0  0  0  0  0  0  0  0  0  0  0  0
   -5.8100    1.5740  -14.0780 C   0  0  0  0  0  0  0  0  0  0  0  0
   -5.3660    0.2500  -14.1120 C   0  0  0  0  0  0  0  0  0  0  0  0
   -4.1380   -0.1690  -13.5500 N   0  0  0  0  0  0  0  0  0  0  0  0
   -3.8660   -0.4730  -12.2330 C   0  0  0  0  0  0  0  0  0  0  0  0
   -4.6390   -0.3650  -11.2900 O   0  0  0  0  0  0  0  0  0  0  0  0
   -2.5590   -0.9120  -12.0870 N   0  0  0  0  0  0  0  0  0  0  0  0
   -2.0480   -1.3310  -10.8180 C   0  0  0  0  0  0  0  0  0  0  0  0
   -0.6660   -1.9120  -10.7030 C   0  0  0  0  0  0  0  0  0  0  0  0
   -0.9540   -0.5520  -10.1380 C   0  0  0  0  0  0  0  0  0  0  0  0
   -6.1870   -0.7160  -14.7250 C   0  0  0  0  0  0  0  0  0  0  0  0
   -5.7030   -2.3770  -14.8020 Cl  0  0  0  0  0  0  0  0  0  0  0  0
   -7.4130   -0.3640  -15.2930 C   0  0  0  0  0  0  0  0  0  0  0  0
   -9.9580    3.4550  -15.8260 C   0  0  0  0  0  0  0  0  0  0  0  0
   -9.2170    3.8580  -16.9600 C   0  0  0  0  0  0  0  0  0  0  0  0
   -9.3470    5.1530  -17.4730 C   0  0  0  0  0  0  0  0  0  0  0  0
   -8.5710    5.5410  -18.6740 C   0  0  0  0  0  0  0  0  0  0  0  0
   -9.2530    6.2510  -19.6250 N   0  0  0  0  0  0  0  0  0  0  0  0
   -7.3880    5.2620  -18.8110 O   0  0  0  0  0  0  0  0  0  0  0  0
  -10.0837    7.8096  -15.2766 H   0  0  0  0  0  0  0  0  0  0  0  0
   -8.7743    8.3649  -16.3738 H   0  0  0  0  0  0  0  0  0  0  0  0
  -10.3624    9.2044  -16.3738 H   0  0  0  0  0  0  0  0  0  0  0  0
  -11.6172    6.3686  -15.2384 H   0  0  0  0  0  0  0  0  0  0  0  0
  -12.0683    2.5306  -12.7443 H   0  0  0  0  0  0  0  0  0  0  0  0
  -10.5948    0.8097  -13.7234 H   0  0  0  0  0  0  0  0  0  0  0  0
   -7.3699    2.9788  -14.6223 H   0  0  0  0  0  0  0  0  0  0  0  0
   -5.1872    2.3448  -13.6006 H   0  0  0  0  0  0  0  0  0  0  0  0
   -3.3380   -0.1030  -14.1670 H   0  0  0  0  0  0  0  0  0  0  0  0
   -2.1250   -1.3070  -12.9100 H   0  0  0  0  0  0  0  0  0  0  0  0
   -3.0582   -1.6633  -10.5368 H   0  0  0  0  0  0  0  0  0  0  0  0
   -0.4808   -2.7599  -10.0272 H   0  0  0  0  0  0  0  0  0  0  0  0
    0.0678   -2.3182  -11.4147 H   0  0  0  0  0  0  0  0  0  0  0  0
   -0.9803   -0.4035   -9.0484 H   0  0  0  0  0  0  0  0  0  0  0  0
   -0.5193    0.4506  -10.2643 H   0  0  0  0  0  0  0  0  0  0  0  0
   -8.0348   -1.1287  -15.7814 H   0  0  0  0  0  0  0  0  0  0  0  0
   -8.5315    3.1466  -17.4438 H   0  0  0  0  0  0  0  0  0  0  0  0
  -10.2640    6.2760  -19.6440 H   0  0  0  0  0  0  0  0  0  0  0  0
   -8.7640    6.4010  -20.4990 H   0  0  0  0  0  0  0  0  0  0  0  0
  1  2  1  0
  2  3  1  0
  3  4  1  0
  4  5  2  0
  5  6  1  0
  6  7  2  0
  7  8  1  0
  8  9  2  0
  9 10  1  0
 10 11  1  0
 11 12  1  0
 12 13  2  0
 13 14  1  0
 14 15  1  0
 15 16  1  0
 16 17  2  0
 16 18  1  0
 18 19  1  0
 19 20  1  0
 20 21  1  0
 14 22  2  0
 22 23  1  0
 22 24  1  0
  9 25  1  0
 25 26  2  0
 26 27  1  0
 27 28  1  0
 28 29  1  0
 28 30  2  0
 27  3  2  0
 25  5  1  0
 24 11  2  0
 21 19  1  0
  1 31  1  0
  1 32  1  0
  1 33  1  0
  4 34  1  0
  7 35  1  0
  8 36  1  0
 12 37  1  0
 13 38  1  0
 15 39  1  0
 18 40  1  0
 19 41  1  0
 20 42  1  0
 20 43  1  0
 21 44  1  0
 21 45  1  0
 24 46  1  0
 26 47  1  0
 29 48  1  0
 29 49  1  0
M  END
>  <meeko>  (10) 
{"is_sidechain": false}

>  <vina_affinity_kcal_mol>  (10) 
-7.625

>  <pose_rank>  (10) 
10

$$$$
