
     RDKit          3D

 48 50  0  0  0  0  0  0  0  0999 V2000
    9.8671   -0.6448    0.5751 C   0  0  0  0  0  0  0  0  0  0  0  0
    8.5390   -0.1427    0.7975 N   0  0  0  0  0  0  0  0  0  0  0  0
    7.6403    0.0546   -0.2292 C   0  0  0  0  0  0  0  0  0  0  0  0
    7.9081   -0.0858   -1.4167 O   0  0  0  0  0  0  0  0  0  0  0  0
    6.2669    0.4503    0.2226 C   0  0  0  0  0  0  0  0  0  0  0  0
    5.2870    0.7266   -0.7168 C   0  0  0  0  0  0  0  0  0  0  0  0
    4.0268    1.0690   -0.2455 C   0  0  0  0  0  0  0  0  0  0  0  0
    3.0668    1.3751   -1.1832 O   0  0  0  0  0  0  0  0  0  0  0  0
    1.8291    0.7978   -1.0182 C   0  0  0  0  0  0  0  0  0  0  0  0
    0.7162    1.6355   -1.1048 C   0  0  0  0  0  0  0  0  0  0  0  0
   -0.5755    1.1102   -0.9767 C   0  0  0  0  0  0  0  0  0  0  0  0
   -0.7579   -0.2584   -0.7753 C   0  0  0  0  0  0  0  0  0  0  0  0
   -2.0161   -0.8859   -0.6432 N   0  0  0  0  0  0  0  0  0  0  0  0
   -3.2509   -0.2771   -0.4987 C   0  0  0  0  0  0  0  0  0  0  0  0
   -3.4245    0.9282   -0.3807 O   0  0  0  0  0  0  0  0  0  0  0  0
   -4.2605   -1.2282   -0.5084 N   0  0  0  0  0  0  0  0  0  0  0  0
   -5.6378   -1.0212   -0.2910 C   0  0  0  0  0  0  0  0  0  0  0  0
   -6.4906   -2.1033   -0.5265 C   0  0  0  0  0  0  0  0  0  0  0  0
   -7.8673   -1.9781   -0.3280 C   0  0  0  0  0  0  0  0  0  0  0  0
   -8.4088   -0.7694    0.1150 C   0  0  0  0  0  0  0  0  0  0  0  0
  -10.1189   -0.6971    0.3348 Cl  0  0  0  0  0  0  0  0  0  0  0  0
   -7.5765    0.3256    0.3675 C   0  0  0  0  0  0  0  0  0  0  0  0
   -8.1320    1.6374    0.8534 C   0  0  0  0  0  0  0  0  0  0  0  0
   -9.0158    2.1962   -0.0190 F   0  0  0  0  0  0  0  0  0  0  0  0
   -7.1765    2.5896    1.0568 F   0  0  0  0  0  0  0  0  0  0  0  0
   -8.7851    1.5277    2.0438 F   0  0  0  0  0  0  0  0  0  0  0  0
   -6.1870    0.1824    0.1607 C   0  0  0  0  0  0  0  0  0  0  0  0
    0.3741   -1.0843   -0.7237 C   0  0  0  0  0  0  0  0  0  0  0  0
    0.2141   -2.4070   -0.5512 F   0  0  0  0  0  0  0  0  0  0  0  0
    1.6623   -0.5745   -0.8467 C   0  0  0  0  0  0  0  0  0  0  0  0
    3.7916    1.1636    1.1248 C   0  0  0  0  0  0  0  0  0  0  0  0
    4.8355    0.8695    1.9849 C   0  0  0  0  0  0  0  0  0  0  0  0
    6.0685    0.5063    1.5724 N   0  0  0  0  0  0  0  0  0  0  0  0
    9.8228   -1.7360    0.5316 H   0  0  0  0  0  0  0  0  0  0  0  0
   10.5003   -0.3347    1.4094 H   0  0  0  0  0  0  0  0  0  0  0  0
   10.2709   -0.2595   -0.3648 H   0  0  0  0  0  0  0  0  0  0  0  0
    8.1575   -0.0913    1.7390 H   0  0  0  0  0  0  0  0  0  0  0  0
    5.4970    0.6728   -1.7794 H   0  0  0  0  0  0  0  0  0  0  0  0
    0.8487    2.7023   -1.2707 H   0  0  0  0  0  0  0  0  0  0  0  0
   -1.4153    1.7948   -1.0516 H   0  0  0  0  0  0  0  0  0  0  0  0
   -1.9745   -1.8851   -0.4913 H   0  0  0  0  0  0  0  0  0  0  0  0
   -3.9955   -2.1418   -0.8450 H   0  0  0  0  0  0  0  0  0  0  0  0
   -6.1017   -3.0580   -0.8722 H   0  0  0  0  0  0  0  0  0  0  0  0
   -8.5142   -2.8310   -0.5220 H   0  0  0  0  0  0  0  0  0  0  0  0
   -5.5477    1.0375    0.3713 H   0  0  0  0  0  0  0  0  0  0  0  0
    2.5096   -1.2506   -0.8173 H   0  0  0  0  0  0  0  0  0  0  0  0
    2.8278    1.4674    1.5178 H   0  0  0  0  0  0  0  0  0  0  0  0
    4.7025    0.9255    3.0622 H   0  0  0  0  0  0  0  0  0  0  0  0
  1  2  1  0
  2  3  1  0
  3  4  2  0
  3  5  1  0
  5  6  2  0
  6  7  1  0
  7  8  1  0
  8  9  1  0
  9 10  1  0
 10 11  2  0
 11 12  1  0
 12 13  1  0
 13 14  1  0
 14 15  2  0
 14 16  1  0
 16 17  1  0
 17 18  1  0
 18 19  2  0
 19 20  1  0
 20 21  1  0
 20 22  2  0
 22 23  1  0
 23 24  1  0
 23 25  1  0
 23 26  1  0
 22 27  1  0
 12 28  2  0
 28 29  1  0
 28 30  1  0
  7 31  2  0
 31 32  1  0
 32 33  2  0
 33  5  1  0
 30  9  2  0
 27 17  2  0
  1 34  1  0
  1 35  1  0
  1 36  1  0
  2 37  1  0
  6 38  1  0
 10 39  1  0
 11 40  1  0
 13 41  1  0
 16 42  1  0
 18 43  1  0
 19 44  1  0
 27 45  1  0
 30 46  1  0
 31 47  1  0
 32 48  1  0
M  END
$$$$
