
     RDKit          3D

 48 50  0  0  0  0  0  0  0  0999 V2000
   -5.4420   -7.0930  -15.9140 C   0  0  0  0  0  0  0  0  0  0  0  0
   -5.3580   -5.7330  -15.4580 N   0  0  0  0  0  0  0  0  0  0  0  0
   -4.3630   -4.8730  -15.8750 C   0  0  0  0  0  0  0  0  0  0  0  0
   -3.4210   -5.2020  -16.5860 O   0  0  0  0  0  0  0  0  0  0  0  0
   -4.5300   -3.4630  -15.3960 C   0  0  0  0  0  0  0  0  0  0  0  0
   -5.7240   -3.0710  -14.8110 C   0  0  0  0  0  0  0  0  0  0  0  0
   -5.8180   -1.7590  -14.3680 C   0  0  0  0  0  0  0  0  0  0  0  0
   -7.0180   -1.3680  -13.8180 O   0  0  0  0  0  0  0  0  0  0  0  0
   -7.6340   -0.2740  -14.3810 C   0  0  0  0  0  0  0  0  0  0  0  0
   -7.9580   -0.3490  -15.7360 C   0  0  0  0  0  0  0  0  0  0  0  0
   -8.6120    0.7160  -16.3660 C   0  0  0  0  0  0  0  0  0  0  0  0
   -8.9570    1.8550  -15.6390 C   0  0  0  0  0  0  0  0  0  0  0  0
   -9.6260    2.9760  -16.1780 N   0  0  0  0  0  0  0  0  0  0  0  0
   -9.0750    4.0140  -16.9100 C   0  0  0  0  0  0  0  0  0  0  0  0
   -7.8800    4.1530  -17.1330 O   0  0  0  0  0  0  0  0  0  0  0  0
  -10.0700    4.8710  -17.3540 N   0  0  0  0  0  0  0  0  0  0  0  0
   -9.9100    6.0900  -18.0450 C   0  0  0  0  0  0  0  0  0  0  0  0
   -9.4280    7.1800  -17.3130 C   0  0  0  0  0  0  0  0  0  0  0  0
   -9.2370    8.4180  -17.9280 C   0  0  0  0  0  0  0  0  0  0  0  0
   -9.5190    8.5820  -19.2870 C   0  0  0  0  0  0  0  0  0  0  0  0
   -9.2560   10.1450  -19.9700 Cl  0  0  0  0  0  0  0  0  0  0  0  0
   -9.9930    7.5050  -20.0430 C   0  0  0  0  0  0  0  0  0  0  0  0
  -10.2980    7.6530  -21.5090 C   0  0  0  0  0  0  0  0  0  0  0  0
   -9.2390    8.1160  -22.2300 F   0  0  0  0  0  0  0  0  0  0  0  0
  -11.3180    8.5230  -21.7670 F   0  0  0  0  0  0  0  0  0  0  0  0
  -10.6750    6.4800  -22.0930 F   0  0  0  0  0  0  0  0  0  0  0  0
  -10.1810    6.2600  -19.4050 C   0  0  0  0  0  0  0  0  0  0  0  0
   -8.6510    1.8940  -14.2710 C   0  0  0  0  0  0  0  0  0  0  0  0
   -8.9960    2.9750  -13.5510 F   0  0  0  0  0  0  0  0  0  0  0  0
   -7.9990    0.8440  -13.6330 C   0  0  0  0  0  0  0  0  0  0  0  0
   -4.7560   -0.8770  -14.5520 C   0  0  0  0  0  0  0  0  0  0  0  0
   -3.6050   -1.3610  -15.1480 C   0  0  0  0  0  0  0  0  0  0  0  0
   -3.4580   -2.6360  -15.5700 N   0  0  0  0  0  0  0  0  0  0  0  0
   -5.4837   -7.7685  -15.0469 H   0  0  0  0  0  0  0  0  0  0  0  0
   -6.3497   -7.2204  -16.5221 H   0  0  0  0  0  0  0  0  0  0  0  0
   -4.5569   -7.3312  -16.5221 H   0  0  0  0  0  0  0  0  0  0  0  0
   -6.1330   -5.3070  -14.9570 H   0  0  0  0  0  0  0  0  0  0  0  0
   -6.5643   -3.7724  -14.7021 H   0  0  0  0  0  0  0  0  0  0  0  0
   -7.6982   -1.2495  -16.3119 H   0  0  0  0  0  0  0  0  0  0  0  0
   -8.8545    0.6545  -17.4372 H   0  0  0  0  0  0  0  0  0  0  0  0
  -10.5780    3.0920  -15.8590 H   0  0  0  0  0  0  0  0  0  0  0  0
  -11.0120    4.5120  -17.3000 H   0  0  0  0  0  0  0  0  0  0  0  0
   -9.1977    7.0604  -16.2441 H   0  0  0  0  0  0  0  0  0  0  0  0
   -8.8626    9.2691  -17.3402 H   0  0  0  0  0  0  0  0  0  0  0  0
  -10.5489    5.4051  -19.9913 H   0  0  0  0  0  0  0  0  0  0  0  0
   -7.7754    0.8950  -12.5572 H   0  0  0  0  0  0  0  0  0  0  0  0
   -4.8301    0.1731  -14.2330 H   0  0  0  0  0  0  0  0  0  0  0  0
   -2.7617   -0.6684  -15.2861 H   0  0  0  0  0  0  0  0  0  0  0  0
  1  2  1  0
  2  3  1  0
  3  4  2  0
  3  5  1  0
  5  6  2  0
  6  7  1  0
  7  8  1  0
  8  9  1  0
  9 10  1  0
 10 11  2  0
 11 12  1  0
 12 13  1  0
 13 14  1  0
 14 15  2  0
 14 16  1  0
 16 17  1  0
 17 18  1  0
 18 19  2  0
 19 20  1  0
 20 21  1  0
 20 22  2  0
 22 23  1  0
 23 24  1  0
 23 25  1  0
 23 26  1  0
 22 27  1  0
 12 28  2  0
 28 29  1  0
 28 30  1  0
  7 31  2  0
 31 32  1  0
 32 33  2  0
 33  5  1  0
 30  9  2  0
 27 17  2  0
  1 34  1  0
  1 35  1  0
  1 36  1  0
  2 37  1  0
  6 38  1  0
 10 39  1  0
 11 40  1  0
 13 41  1  0
 16 42  1  0
 18 43  1  0
 19 44  1  0
 27 45  1  0
 30 46  1  0
 31 47  1  0
 32 48  1  0
M  END
>  <meeko>  (1) 
{"is_sidechain": false}

>  <vina_affinity_kcal_mol>  (1) 
-9.22

>  <pose_rank>  (1) 
1

$$$$

     RDKit          3D

 48 50  0  0  0  0  0  0  0  0999 V2000
  -20.1560   -0.0930   -6.5260 C   0  0  0  0  0  0  0  0  0  0  0  0
  -18.7810   -0.4380   -6.7630 N   0  0  0  0  0  0  0  0  0  0  0  0
  -17.7800   -0.1580   -5.8560 C   0  0  0  0  0  0  0  0  0  0  0  0
  -17.9450    0.4810   -4.8220 O   0  0  0  0  0  0  0  0  0  0  0  0
  -16.4410   -0.7200   -6.2240 C   0  0  0  0  0  0  0  0  0  0  0  0
  -16.1420   -0.9680   -7.5540 C   0  0  0  0  0  0  0  0  0  0  0  0
  -14.8810   -1.4710   -7.8430 C   0  0  0  0  0  0  0  0  0  0  0  0
  -14.6010   -1.7450   -9.1630 O   0  0  0  0  0  0  0  0  0  0  0  0
  -13.7170   -0.9050   -9.8000 C   0  0  0  0  0  0  0  0  0  0  0  0
  -12.4400   -1.4010  -10.0640 C   0  0  0  0  0  0  0  0  0  0  0  0
  -11.5010   -0.6110  -10.7370 C   0  0  0  0  0  0  0  0  0  0  0  0
  -11.8400    0.6740  -11.1590 C   0  0  0  0  0  0  0  0  0  0  0  0
  -10.9690    1.5450  -11.8510 N   0  0  0  0  0  0  0  0  0  0  0  0
  -10.9900    1.8620  -13.1980 C   0  0  0  0  0  0  0  0  0  0  0  0
  -11.7390    1.3550  -14.0230 O   0  0  0  0  0  0  0  0  0  0  0  0
  -10.0430    2.8350  -13.4780 N   0  0  0  0  0  0  0  0  0  0  0  0
   -9.6890    3.3520  -14.7420 C   0  0  0  0  0  0  0  0  0  0  0  0
   -8.5400    2.8320  -15.3450 C   0  0  0  0  0  0  0  0  0  0  0  0
   -8.1290    3.2880  -16.5990 C   0  0  0  0  0  0  0  0  0  0  0  0
   -8.8650    4.2680  -17.2690 C   0  0  0  0  0  0  0  0  0  0  0  0
   -8.2890    4.7780  -18.8140 Cl  0  0  0  0  0  0  0  0  0  0  0  0
  -10.0240    4.7970  -16.6920 C   0  0  0  0  0  0  0  0  0  0  0  0
  -10.8400    5.8480  -17.3950 C   0  0  0  0  0  0  0  0  0  0  0  0
  -11.9870    6.1630  -16.7320 F   0  0  0  0  0  0  0  0  0  0  0  0
  -11.2380    5.4780  -18.6470 F   0  0  0  0  0  0  0  0  0  0  0  0
  -10.1630    7.0170  -17.5680 F   0  0  0  0  0  0  0  0  0  0  0  0
  -10.4250    4.3250  -15.4230 C   0  0  0  0  0  0  0  0  0  0  0  0
  -13.1400    1.1380  -10.9110 C   0  0  0  0  0  0  0  0  0  0  0  0
  -13.4890    2.3670  -11.3300 F   0  0  0  0  0  0  0  0  0  0  0  0
  -14.0820    0.3650  -10.2420 C   0  0  0  0  0  0  0  0  0  0  0  0
  -13.9820   -1.7470   -6.8140 C   0  0  0  0  0  0  0  0  0  0  0  0
  -14.3740   -1.4680   -5.5170 C   0  0  0  0  0  0  0  0  0  0  0  0
  -15.5790   -0.9520   -5.1920 N   0  0  0  0  0  0  0  0  0  0  0  0
  -20.3409   -0.0466   -5.4426 H   0  0  0  0  0  0  0  0  0  0  0  0
  -20.3711    0.8870   -6.9770 H   0  0  0  0  0  0  0  0  0  0  0  0
  -20.8083   -0.8553   -6.9770 H   0  0  0  0  0  0  0  0  0  0  0  0
  -18.5290   -1.0620   -7.5240 H   0  0  0  0  0  0  0  0  0  0  0  0
  -16.8757   -0.7737   -8.3502 H   0  0  0  0  0  0  0  0  0  0  0  0
  -12.1700   -2.4175   -9.7418 H   0  0  0  0  0  0  0  0  0  0  0  0
  -10.4929   -1.0048  -10.9336 H   0  0  0  0  0  0  0  0  0  0  0  0
  -10.1620    1.8430  -11.3200 H   0  0  0  0  0  0  0  0  0  0  0  0
   -9.6680    3.3230  -12.6780 H   0  0  0  0  0  0  0  0  0  0  0  0
   -7.9551    2.0574  -14.8274 H   0  0  0  0  0  0  0  0  0  0  0  0
   -7.2212    2.8735  -17.0616 H   0  0  0  0  0  0  0  0  0  0  0  0
  -11.3364    4.7321  -14.9607 H   0  0  0  0  0  0  0  0  0  0  0  0
  -15.0974    0.7491  -10.0647 H   0  0  0  0  0  0  0  0  0  0  0  0
  -12.9908   -2.1738   -7.0269 H   0  0  0  0  0  0  0  0  0  0  0  0
  -13.6636   -1.6785   -4.7039 H   0  0  0  0  0  0  0  0  0  0  0  0
  1  2  1  0
  2  3  1  0
  3  4  2  0
  3  5  1  0
  5  6  2  0
  6  7  1  0
  7  8  1  0
  8  9  1  0
  9 10  1  0
 10 11  2  0
 11 12  1  0
 12 13  1  0
 13 14  1  0
 14 15  2  0
 14 16  1  0
 16 17  1  0
 17 18  1  0
 18 19  2  0
 19 20  1  0
 20 21  1  0
 20 22  2  0
 22 23  1  0
 23 24  1  0
 23 25  1  0
 23 26  1  0
 22 27  1  0
 12 28  2  0
 28 29  1  0
 28 30  1  0
  7 31  2  0
 31 32  1  0
 32 33  2  0
 33  5  1  0
 30  9  2  0
 27 17  2  0
  1 34  1  0
  1 35  1  0
  1 36  1  0
  2 37  1  0
  6 38  1  0
 10 39  1  0
 11 40  1  0
 13 41  1  0
 16 42  1  0
 18 43  1  0
 19 44  1  0
 27 45  1  0
 30 46  1  0
 31 47  1  0
 32 48  1  0
M  END
>  <meeko>  (2) 
{"is_sidechain": false}

>  <vina_affinity_kcal_mol>  (2) 
-9.18

>  <pose_rank>  (2) 
2

$$$$

     RDKit          3D

 48 50  0  0  0  0  0  0  0  0999 V2000
   -0.6940   -0.3340  -10.7020 C   0  0  0  0  0  0  0  0  0  0  0  0
   -1.6860   -0.8130  -11.6260 N   0  0  0  0  0  0  0  0  0  0  0  0
   -3.0320   -0.5570  -11.4650 C   0  0  0  0  0  0  0  0  0  0  0  0
   -3.5140    0.0120  -10.4920 O   0  0  0  0  0  0  0  0  0  0  0  0
   -3.8860   -1.0210  -12.6050 C   0  0  0  0  0  0  0  0  0  0  0  0
   -5.2630   -0.8810  -12.5340 C   0  0  0  0  0  0  0  0  0  0  0  0
   -6.0070   -1.3090  -13.6250 C   0  0  0  0  0  0  0  0  0  0  0  0
   -7.3760   -1.1970  -13.5340 O   0  0  0  0  0  0  0  0  0  0  0  0
   -7.9500   -0.0930  -14.1220 C   0  0  0  0  0  0  0  0  0  0  0  0
   -8.2810   -0.1870  -15.4740 C   0  0  0  0  0  0  0  0  0  0  0  0
   -8.8960    0.8870  -16.1280 C   0  0  0  0  0  0  0  0  0  0  0  0
   -9.1940    2.0550  -15.4270 C   0  0  0  0  0  0  0  0  0  0  0  0
   -9.8200    3.1890  -15.9910 N   0  0  0  0  0  0  0  0  0  0  0  0
   -9.2390    4.1680  -16.7780 C   0  0  0  0  0  0  0  0  0  0  0  0
   -8.0460    4.2360  -17.0390 O   0  0  0  0  0  0  0  0  0  0  0  0
  -10.2020    5.0580  -17.2280 N   0  0  0  0  0  0  0  0  0  0  0  0
  -10.0000    6.2400  -17.9700 C   0  0  0  0  0  0  0  0  0  0  0  0
   -9.4950    7.3470  -17.2820 C   0  0  0  0  0  0  0  0  0  0  0  0
   -9.2620    8.5510  -17.9490 C   0  0  0  0  0  0  0  0  0  0  0  0
   -9.5260    8.6630  -19.3160 C   0  0  0  0  0  0  0  0  0  0  0  0
   -9.2120   10.1860  -20.0650 Cl  0  0  0  0  0  0  0  0  0  0  0  0
  -10.0230    7.5680  -20.0290 C   0  0  0  0  0  0  0  0  0  0  0  0
  -10.3100    7.6580  -21.5030 C   0  0  0  0  0  0  0  0  0  0  0  0
  -11.3050    8.5400  -21.7990 F   0  0  0  0  0  0  0  0  0  0  0  0
  -10.7040    6.4730  -22.0540 F   0  0  0  0  0  0  0  0  0  0  0  0
   -9.2250    8.0450  -22.2320 F   0  0  0  0  0  0  0  0  0  0  0  0
  -10.2540    6.3580  -19.3390 C   0  0  0  0  0  0  0  0  0  0  0  0
   -8.8830    2.1140  -14.0610 C   0  0  0  0  0  0  0  0  0  0  0  0
   -9.1830    3.2250  -13.3660 F   0  0  0  0  0  0  0  0  0  0  0  0
   -8.2700    1.0550  -13.4000 C   0  0  0  0  0  0  0  0  0  0  0  0
   -5.3740   -1.8930  -14.7200 C   0  0  0  0  0  0  0  0  0  0  0  0
   -3.9950   -1.9920  -14.6970 C   0  0  0  0  0  0  0  0  0  0  0  0
   -3.2290   -1.5630  -13.6710 N   0  0  0  0  0  0  0  0  0  0  0  0
   -1.0412   -0.5017   -9.6718 H   0  0  0  0  0  0  0  0  0  0  0  0
    0.2496   -0.8757  -10.8637 H   0  0  0  0  0  0  0  0  0  0  0  0
   -0.5315    0.7418  -10.8637 H   0  0  0  0  0  0  0  0  0  0  0  0
   -1.4110   -1.1990  -12.5250 H   0  0  0  0  0  0  0  0  0  0  0  0
   -5.7479   -0.4473  -11.6470 H   0  0  0  0  0  0  0  0  0  0  0  0
   -8.0575   -1.1100  -16.0290 H   0  0  0  0  0  0  0  0  0  0  0  0
   -9.1446    0.8095  -17.1967 H   0  0  0  0  0  0  0  0  0  0  0  0
  -10.7560    3.3660  -15.6510 H   0  0  0  0  0  0  0  0  0  0  0  0
  -11.1590    4.7510  -17.1340 H   0  0  0  0  0  0  0  0  0  0  0  0
   -9.2794    7.2688  -16.2062 H   0  0  0  0  0  0  0  0  0  0  0  0
   -8.8684    9.4160  -17.3951 H   0  0  0  0  0  0  0  0  0  0  0  0
  -10.6423    5.4894  -19.8911 H   0  0  0  0  0  0  0  0  0  0  0  0
   -8.0418    1.1225  -12.3261 H   0  0  0  0  0  0  0  0  0  0  0  0
   -5.9541   -2.2644  -15.5776 H   0  0  0  0  0  0  0  0  0  0  0  0
   -3.4932   -2.4462  -15.5641 H   0  0  0  0  0  0  0  0  0  0  0  0
  1  2  1  0
  2  3  1  0
  3  4  2  0
  3  5  1  0
  5  6  2  0
  6  7  1  0
  7  8  1  0
  8  9  1  0
  9 10  1  0
 10 11  2  0
 11 12  1  0
 12 13  1  0
 13 14  1  0
 14 15  2  0
 14 16  1  0
 16 17  1  0
 17 18  1  0
 18 19  2  0
 19 20  1  0
 20 21  1  0
 20 22  2  0
 22 23  1  0
 23 24  1  0
 23 25  1  0
 23 26  1  0
 22 27  1  0
 12 28  2  0
 28 29  1  0
 28 30  1  0
  7 31  2  0
 31 32  1  0
 32 33  2  0
 33  5  1  0
 30  9  2  0
 27 17  2  0
  1 34  1  0
  1 35  1  0
  1 36  1  0
  2 37  1  0
  6 38  1  0
 10 39  1  0
 11 40  1  0
 13 41  1  0
 16 42  1  0
 18 43  1  0
 19 44  1  0
 27 45  1  0
 30 46  1  0
 31 47  1  0
 32 48  1  0
M  END
>  <meeko>  (3) 
{"is_sidechain": false}

>  <vina_affinity_kcal_mol>  (3) 
-9.177

>  <pose_rank>  (3) 
3

$$$$

     RDKit          3D

 48 50  0  0  0  0  0  0  0  0999 V2000
  -11.5120   -1.3410   -8.4670 C   0  0  0  0  0  0  0  0  0  0  0  0
  -10.1970   -1.2070   -9.0290 N   0  0  0  0  0  0  0  0  0  0  0  0
   -9.5820   -2.2250   -9.7280 C   0  0  0  0  0  0  0  0  0  0  0  0
  -10.0480   -3.3520   -9.8570 O   0  0  0  0  0  0  0  0  0  0  0  0
   -8.2750   -1.8410  -10.3510 C   0  0  0  0  0  0  0  0  0  0  0  0
   -8.1790   -1.7190  -11.7290 C   0  0  0  0  0  0  0  0  0  0  0  0
   -6.9510   -1.3420  -12.2540 C   0  0  0  0  0  0  0  0  0  0  0  0
   -6.8530   -1.2550  -13.6240 O   0  0  0  0  0  0  0  0  0  0  0  0
   -7.4910   -0.1960  -14.2270 C   0  0  0  0  0  0  0  0  0  0  0  0
   -8.0190   -0.4080  -15.5010 C   0  0  0  0  0  0  0  0  0  0  0  0
   -8.7070    0.6170  -16.1610 C   0  0  0  0  0  0  0  0  0  0  0  0
   -8.8810    1.8550  -15.5420 C   0  0  0  0  0  0  0  0  0  0  0  0
   -9.5660    2.9470  -16.1180 N   0  0  0  0  0  0  0  0  0  0  0  0
   -9.0220    4.0000  -16.8340 C   0  0  0  0  0  0  0  0  0  0  0  0
   -7.8250    4.1820  -17.0060 O   0  0  0  0  0  0  0  0  0  0  0  0
  -10.0280    4.8170  -17.3260 N   0  0  0  0  0  0  0  0  0  0  0  0
   -9.8830    6.0380  -18.0180 C   0  0  0  0  0  0  0  0  0  0  0  0
   -9.4070    7.1320  -17.2900 C   0  0  0  0  0  0  0  0  0  0  0  0
   -9.2300    8.3710  -17.9070 C   0  0  0  0  0  0  0  0  0  0  0  0
   -9.5220    8.5330  -19.2640 C   0  0  0  0  0  0  0  0  0  0  0  0
   -9.2770   10.0970  -19.9490 Cl  0  0  0  0  0  0  0  0  0  0  0  0
   -9.9900    7.4510  -20.0170 C   0  0  0  0  0  0  0  0  0  0  0  0
  -10.3050    7.5950  -21.4810 C   0  0  0  0  0  0  0  0  0  0  0  0
  -10.7270    6.4330  -22.0520 F   0  0  0  0  0  0  0  0  0  0  0  0
   -9.2350    7.9960  -22.2300 F   0  0  0  0  0  0  0  0  0  0  0  0
  -11.2760    8.5180  -21.7270 F   0  0  0  0  0  0  0  0  0  0  0  0
  -10.1640    6.2050  -19.3770 C   0  0  0  0  0  0  0  0  0  0  0  0
   -8.3710    2.0340  -14.2490 C   0  0  0  0  0  0  0  0  0  0  0  0
   -8.5490    3.2130  -13.6300 F   0  0  0  0  0  0  0  0  0  0  0  0
   -7.6830    1.0250  -13.5830 C   0  0  0  0  0  0  0  0  0  0  0  0
   -5.8590   -1.1400  -11.4110 C   0  0  0  0  0  0  0  0  0  0  0  0
   -6.0530   -1.2880  -10.0500 C   0  0  0  0  0  0  0  0  0  0  0  0
   -7.2360   -1.6250   -9.4930 N   0  0  0  0  0  0  0  0  0  0  0  0
  -11.4440   -1.3341   -7.3691 H   0  0  0  0  0  0  0  0  0  0  0  0
  -12.1406   -0.5023   -8.8007 H   0  0  0  0  0  0  0  0  0  0  0  0
  -11.9585   -2.2893   -8.8007 H   0  0  0  0  0  0  0  0  0  0  0  0
   -9.7510   -0.2950   -9.0870 H   0  0  0  0  0  0  0  0  0  0  0  0
   -9.0433   -1.9136  -12.3810 H   0  0  0  0  0  0  0  0  0  0  0  0
   -7.8940   -1.3857  -15.9893 H   0  0  0  0  0  0  0  0  0  0  0  0
   -9.1112    0.4459  -17.1696 H   0  0  0  0  0  0  0  0  0  0  0  0
  -10.5350    3.0300  -15.8410 H   0  0  0  0  0  0  0  0  0  0  0  0
  -10.9580    4.4240  -17.3100 H   0  0  0  0  0  0  0  0  0  0  0  0
   -9.1700    7.0154  -16.2222 H   0  0  0  0  0  0  0  0  0  0  0  0
   -8.8585    9.2251  -17.3219 H   0  0  0  0  0  0  0  0  0  0  0  0
  -10.5287    5.3467  -19.9604 H   0  0  0  0  0  0  0  0  0  0  0  0
   -7.2972    1.1879  -12.5658 H   0  0  0  0  0  0  0  0  0  0  0  0
   -4.8725   -0.8709  -11.8166 H   0  0  0  0  0  0  0  0  0  0  0  0
   -5.1944   -1.1217   -9.3828 H   0  0  0  0  0  0  0  0  0  0  0  0
  1  2  1  0
  2  3  1  0
  3  4  2  0
  3  5  1  0
  5  6  2  0
  6  7  1  0
  7  8  1  0
  8  9  1  0
  9 10  1  0
 10 11  2  0
 11 12  1  0
 12 13  1  0
 13 14  1  0
 14 15  2  0
 14 16  1  0
 16 17  1  0
 17 18  1  0
 18 19  2  0
 19 20  1  0
 20 21  1  0
 20 22  2  0
 22 23  1  0
 23 24  1  0
 23 25  1  0
 23 26  1  0
 22 27  1  0
 12 28  2  0
 28 29  1  0
 28 30  1  0
  7 31  2  0
 31 32  1  0
 32 33  2  0
 33  5  1  0
 30  9  2  0
 27 17  2  0
  1 34  1  0
  1 35  1  0
  1 36  1  0
  2 37  1  0
  6 38  1  0
 10 39  1  0
 11 40  1  0
 13 41  1  0
 16 42  1  0
 18 43  1  0
 19 44  1  0
 27 45  1  0
 30 46  1  0
 31 47  1  0
 32 48  1  0
M  END
>  <meeko>  (4) 
{"is_sidechain": false}

>  <vina_affinity_kcal_mol>  (4) 
-9.116

>  <pose_rank>  (4) 
4

$$$$

     RDKit          3D

 48 50  0  0  0  0  0  0  0  0999 V2000
   -2.2310    1.1090  -17.7840 C   0  0  0  0  0  0  0  0  0  0  0  0
   -3.1300    0.1140  -17.2680 N   0  0  0  0  0  0  0  0  0  0  0  0
   -2.7150   -0.8890  -16.4170 C   0  0  0  0  0  0  0  0  0  0  0  0
   -1.5480   -1.0830  -16.0970 O   0  0  0  0  0  0  0  0  0  0  0  0
   -3.8260   -1.7410  -15.8820 C   0  0  0  0  0  0  0  0  0  0  0  0
   -4.8450   -1.1580  -15.1450 C   0  0  0  0  0  0  0  0  0  0  0  0
   -5.8600   -1.9890  -14.6900 C   0  0  0  0  0  0  0  0  0  0  0  0
   -6.8520   -1.4100  -13.9310 O   0  0  0  0  0  0  0  0  0  0  0  0
   -7.4850   -0.3120  -14.4670 C   0  0  0  0  0  0  0  0  0  0  0  0
   -7.8860   -0.3920  -15.8010 C   0  0  0  0  0  0  0  0  0  0  0  0
   -8.5610    0.6770  -16.4010 C   0  0  0  0  0  0  0  0  0  0  0  0
   -8.8520    1.8250  -15.6640 C   0  0  0  0  0  0  0  0  0  0  0  0
   -9.5350    2.9510  -16.1720 N   0  0  0  0  0  0  0  0  0  0  0  0
   -9.0100    3.9870  -16.9260 C   0  0  0  0  0  0  0  0  0  0  0  0
   -7.8250    4.1190  -17.1980 O   0  0  0  0  0  0  0  0  0  0  0  0
  -10.0180    4.8500  -17.3260 N   0  0  0  0  0  0  0  0  0  0  0  0
   -9.8800    6.0690  -18.0210 C   0  0  0  0  0  0  0  0  0  0  0  0
   -9.4140    7.1690  -17.2940 C   0  0  0  0  0  0  0  0  0  0  0  0
   -9.2440    8.4080  -17.9140 C   0  0  0  0  0  0  0  0  0  0  0  0
   -9.5340    8.5640  -19.2720 C   0  0  0  0  0  0  0  0  0  0  0  0
   -9.2990   10.1280  -19.9610 Cl  0  0  0  0  0  0  0  0  0  0  0  0
   -9.9920    7.4770  -20.0240 C   0  0  0  0  0  0  0  0  0  0  0  0
  -10.3040    7.6150  -21.4890 C   0  0  0  0  0  0  0  0  0  0  0  0
  -10.7130    6.4470  -22.0580 F   0  0  0  0  0  0  0  0  0  0  0  0
   -9.2370    8.0250  -22.2350 F   0  0  0  0  0  0  0  0  0  0  0  0
  -11.2850    8.5270  -21.7390 F   0  0  0  0  0  0  0  0  0  0  0  0
  -10.1580    6.2310  -19.3810 C   0  0  0  0  0  0  0  0  0  0  0  0
   -8.4680    1.8690  -14.3150 C   0  0  0  0  0  0  0  0  0  0  0  0
   -8.7590    2.9590  -13.5850 F   0  0  0  0  0  0  0  0  0  0  0  0
   -7.7940    0.8160  -13.7080 C   0  0  0  0  0  0  0  0  0  0  0  0
   -5.8120   -3.3580  -14.9400 C   0  0  0  0  0  0  0  0  0  0  0  0
   -4.7520   -3.8460  -15.6840 C   0  0  0  0  0  0  0  0  0  0  0  0
   -3.7590   -3.0730  -16.1710 N   0  0  0  0  0  0  0  0  0  0  0  0
   -1.7519    1.6393  -16.9478 H   0  0  0  0  0  0  0  0  0  0  0  0
   -1.4600    0.6226  -18.3996 H   0  0  0  0  0  0  0  0  0  0  0  0
   -2.7928    1.8269  -18.3996 H   0  0  0  0  0  0  0  0  0  0  0  0
   -4.1360    0.2250  -17.3680 H   0  0  0  0  0  0  0  0  0  0  0  0
   -4.8493   -0.0794  -14.9291 H   0  0  0  0  0  0  0  0  0  0  0  0
   -7.6705   -1.2997  -16.3839 H   0  0  0  0  0  0  0  0  0  0  0  0
   -8.8629    0.6118  -17.4567 H   0  0  0  0  0  0  0  0  0  0  0  0
  -10.4730    3.0720  -15.8130 H   0  0  0  0  0  0  0  0  0  0  0  0
  -10.9590    4.4960  -17.2330 H   0  0  0  0  0  0  0  0  0  0  0  0
   -9.1796    7.0570  -16.2251 H   0  0  0  0  0  0  0  0  0  0  0  0
   -8.8797    9.2663  -17.3304 H   0  0  0  0  0  0  0  0  0  0  0  0
  -10.5141    5.3685  -19.9635 H   0  0  0  0  0  0  0  0  0  0  0  0
   -7.5092    0.8716  -12.6470 H   0  0  0  0  0  0  0  0  0  0  0  0
   -6.5932   -4.0314  -14.5576 H   0  0  0  0  0  0  0  0  0  0  0  0
   -4.7170   -4.9259  -15.8902 H   0  0  0  0  0  0  0  0  0  0  0  0
  1  2  1  0
  2  3  1  0
  3  4  2  0
  3  5  1  0
  5  6  2  0
  6  7  1  0
  7  8  1  0
  8  9  1  0
  9 10  1  0
 10 11  2  0
 11 12  1  0
 12 13  1  0
 13 14  1  0
 14 15  2  0
 14 16  1  0
 16 17  1  0
 17 18  1  0
 18 19  2  0
 19 20  1  0
 20 21  1  0
 20 22  2  0
 22 23  1  0
 23 24  1  0
 23 25  1  0
 23 26  1  0
 22 27  1  0
 12 28  2  0
 28 29  1  0
 28 30  1  0
  7 31  2  0
 31 32  1  0
 32 33  2  0
 33  5  1  0
 30  9  2  0
 27 17  2  0
  1 34  1  0
  1 35  1  0
  1 36  1  0
  2 37  1  0
  6 38  1  0
 10 39  1  0
 11 40  1  0
 13 41  1  0
 16 42  1  0
 18 43  1  0
 19 44  1  0
 27 45  1  0
 30 46  1  0
 31 47  1  0
 32 48  1  0
M  END
>  <meeko>  (5) 
{"is_sidechain": false}

>  <vina_affinity_kcal_mol>  (5) 
-9.003

>  <pose_rank>  (5) 
5

$$$$

     RDKit          3D

 48 50  0  0  0  0  0  0  0  0999 V2000
  -20.3120   -0.2250   -6.4070 C   0  0  0  0  0  0  0  0  0  0  0  0
  -18.9390   -0.5590   -6.6680 N   0  0  0  0  0  0  0  0  0  0  0  0
  -17.9080   -0.1430   -5.8510 C   0  0  0  0  0  0  0  0  0  0  0  0
  -18.0470    0.6110   -4.8950 O   0  0  0  0  0  0  0  0  0  0  0  0
  -16.5690   -0.7090   -6.2150 C   0  0  0  0  0  0  0  0  0  0  0  0
  -16.2570   -0.9360   -7.5460 C   0  0  0  0  0  0  0  0  0  0  0  0
  -14.9960   -1.4430   -7.8300 C   0  0  0  0  0  0  0  0  0  0  0  0
  -14.7050   -1.6970   -9.1510 O   0  0  0  0  0  0  0  0  0  0  0  0
  -13.8290   -0.8360   -9.7720 C   0  0  0  0  0  0  0  0  0  0  0  0
  -12.5330   -1.2980  -10.0030 C   0  0  0  0  0  0  0  0  0  0  0  0
  -11.6000   -0.4860  -10.6570 C   0  0  0  0  0  0  0  0  0  0  0  0
  -11.9640    0.7870  -11.0950 C   0  0  0  0  0  0  0  0  0  0  0  0
  -11.1020    1.6780  -11.7720 N   0  0  0  0  0  0  0  0  0  0  0  0
  -11.0610    1.9430  -13.1300 C   0  0  0  0  0  0  0  0  0  0  0  0
  -11.7320    1.3660  -13.9740 O   0  0  0  0  0  0  0  0  0  0  0  0
  -10.1510    2.9560  -13.3950 N   0  0  0  0  0  0  0  0  0  0  0  0
   -9.7510    3.4440  -14.6560 C   0  0  0  0  0  0  0  0  0  0  0  0
  -10.6260    4.3170  -15.3090 C   0  0  0  0  0  0  0  0  0  0  0  0
  -10.2980    4.8480  -16.5580 C   0  0  0  0  0  0  0  0  0  0  0  0
   -9.0870    4.5160  -17.1690 C   0  0  0  0  0  0  0  0  0  0  0  0
   -8.7570    5.2130  -18.7130 Cl  0  0  0  0  0  0  0  0  0  0  0  0
   -8.1890    3.6520  -16.5330 C   0  0  0  0  0  0  0  0  0  0  0  0
   -6.8750    3.2840  -17.1650 C   0  0  0  0  0  0  0  0  0  0  0  0
   -7.0190    2.5800  -18.3220 F   0  0  0  0  0  0  0  0  0  0  0  0
   -6.0870    2.5060  -16.3660 F   0  0  0  0  0  0  0  0  0  0  0  0
   -6.1100    4.3700  -17.4690 F   0  0  0  0  0  0  0  0  0  0  0  0
   -8.5380    3.1240  -15.2700 C   0  0  0  0  0  0  0  0  0  0  0  0
  -13.2820    1.2170  -10.8820 C   0  0  0  0  0  0  0  0  0  0  0  0
  -13.6550    2.4320  -11.3170 F   0  0  0  0  0  0  0  0  0  0  0  0
  -14.2180    0.4210  -10.2310 C   0  0  0  0  0  0  0  0  0  0  0  0
  -14.1110   -1.7430   -6.7970 C   0  0  0  0  0  0  0  0  0  0  0  0
  -14.5150   -1.4840   -5.4990 C   0  0  0  0  0  0  0  0  0  0  0  0
  -15.7200   -0.9650   -5.1780 N   0  0  0  0  0  0  0  0  0  0  0  0
  -20.4793   -0.1843   -5.3206 H   0  0  0  0  0  0  0  0  0  0  0  0
  -20.5416    0.7552   -6.8503 H   0  0  0  0  0  0  0  0  0  0  0  0
  -20.9662   -0.9902   -6.8503 H   0  0  0  0  0  0  0  0  0  0  0  0
  -18.7020   -1.2640   -7.3600 H   0  0  0  0  0  0  0  0  0  0  0  0
  -16.9805   -0.7227   -8.3467 H   0  0  0  0  0  0  0  0  0  0  0  0
  -12.2433   -2.3054   -9.6694 H   0  0  0  0  0  0  0  0  0  0  0  0
  -10.5768   -0.8526  -10.8261 H   0  0  0  0  0  0  0  0  0  0  0  0
  -10.3440    2.0400  -11.2080 H   0  0  0  0  0  0  0  0  0  0  0  0
   -9.8500    3.4930  -12.5950 H   0  0  0  0  0  0  0  0  0  0  0  0
  -11.5809    4.5879  -14.8349 H   0  0  0  0  0  0  0  0  0  0  0  0
  -10.9968    5.5311  -17.0631 H   0  0  0  0  0  0  0  0  0  0  0  0
   -7.8389    2.4458  -14.7588 H   0  0  0  0  0  0  0  0  0  0  0  0
  -15.2478    0.7774  -10.0809 H   0  0  0  0  0  0  0  0  0  0  0  0
  -13.1205   -2.1730   -7.0067 H   0  0  0  0  0  0  0  0  0  0  0  0
  -13.8150   -1.7139   -4.6822 H   0  0  0  0  0  0  0  0  0  0  0  0
  1  2  1  0
  2  3  1  0
  3  4  2  0
  3  5  1  0
  5  6  2  0
  6  7  1  0
  7  8  1  0
  8  9  1  0
  9 10  1  0
 10 11  2  0
 11 12  1  0
 12 13  1  0
 13 14  1  0
 14 15  2  0
 14 16  1  0
 16 17  1  0
 17 18  1  0
 18 19  2  0
 19 20  1  0
 20 21  1  0
 20 22  2  0
 22 23  1  0
 23 24  1  0
 23 25  1  0
 23 26  1  0
 22 27  1  0
 12 28  2  0
 28 29  1  0
 28 30  1  0
  7 31  2  0
 31 32  1  0
 32 33  2  0
 33  5  1  0
 30  9  2  0
 27 17  2  0
  1 34  1  0
  1 35  1  0
  1 36  1  0
  2 37  1  0
  6 38  1  0
 10 39  1  0
 11 40  1  0
 13 41  1  0
 16 42  1  0
 18 43  1  0
 19 44  1  0
 27 45  1  0
 30 46  1  0
 31 47  1  0
 32 48  1  0
M  END
>  <meeko>  (6) 
{"is_sidechain": false}

>  <vina_affinity_kcal_mol>  (6) 
-8.784

>  <pose_rank>  (6) 
6

$$$$

     RDKit          3D

 48 50  0  0  0  0  0  0  0  0999 V2000
  -16.2010   -1.4740   -7.7360 C   0  0  0  0  0  0  0  0  0  0  0  0
  -15.2340   -1.8210   -8.7410 N   0  0  0  0  0  0  0  0  0  0  0  0
  -13.9410   -1.3400   -8.7220 C   0  0  0  0  0  0  0  0  0  0  0  0
  -13.5240   -0.5140   -7.9170 O   0  0  0  0  0  0  0  0  0  0  0  0
  -13.0510   -1.9270   -9.7740 C   0  0  0  0  0  0  0  0  0  0  0  0
  -11.9510   -1.2120  -10.2210 C   0  0  0  0  0  0  0  0  0  0  0  0
  -11.1480   -1.8100  -11.1830 C   0  0  0  0  0  0  0  0  0  0  0  0
  -10.0760   -1.0820  -11.6470 O   0  0  0  0  0  0  0  0  0  0  0  0
  -10.3600    0.0100  -12.4350 C   0  0  0  0  0  0  0  0  0  0  0  0
   -9.7700    0.0580  -13.6990 C   0  0  0  0  0  0  0  0  0  0  0  0
  -10.0380    1.1240  -14.5640 C   0  0  0  0  0  0  0  0  0  0  0  0
  -10.9100    2.1410  -14.1740 C   0  0  0  0  0  0  0  0  0  0  0  0
  -11.2530    3.2530  -14.9740 N   0  0  0  0  0  0  0  0  0  0  0  0
  -10.3930    4.0980  -15.6550 C   0  0  0  0  0  0  0  0  0  0  0  0
   -9.1730    4.0500  -15.5930 O   0  0  0  0  0  0  0  0  0  0  0  0
  -11.1140    5.0050  -16.4170 N   0  0  0  0  0  0  0  0  0  0  0  0
  -10.6110    6.0850  -17.1720 C   0  0  0  0  0  0  0  0  0  0  0  0
   -9.9840    7.1180  -16.4690 C   0  0  0  0  0  0  0  0  0  0  0  0
   -9.4550    8.2180  -17.1470 C   0  0  0  0  0  0  0  0  0  0  0  0
   -9.5410    8.2970  -18.5390 C   0  0  0  0  0  0  0  0  0  0  0  0
   -8.8620    9.6890  -19.3000 Cl  0  0  0  0  0  0  0  0  0  0  0  0
  -10.1540    7.2710  -19.2670 C   0  0  0  0  0  0  0  0  0  0  0  0
  -10.2530    7.3270  -20.7670 C   0  0  0  0  0  0  0  0  0  0  0  0
   -9.0380    7.3980  -21.3790 F   0  0  0  0  0  0  0  0  0  0  0  0
  -10.9510    8.4070  -21.2250 F   0  0  0  0  0  0  0  0  0  0  0  0
  -10.8870    6.2430  -21.2970 F   0  0  0  0  0  0  0  0  0  0  0  0
  -10.6840    6.1670  -18.5650 C   0  0  0  0  0  0  0  0  0  0  0  0
  -11.5160    2.0550  -12.9120 C   0  0  0  0  0  0  0  0  0  0  0  0
  -12.3740    3.0150  -12.5290 F   0  0  0  0  0  0  0  0  0  0  0  0
  -11.2560    1.0020  -12.0420 C   0  0  0  0  0  0  0  0  0  0  0  0
  -11.4780   -3.0640  -11.6940 C   0  0  0  0  0  0  0  0  0  0  0  0
  -12.5980   -3.6980  -11.1850 C   0  0  0  0  0  0  0  0  0  0  0  0
  -13.3920   -3.1670  -10.2300 N   0  0  0  0  0  0  0  0  0  0  0  0
  -15.7651   -1.6304   -6.7382 H   0  0  0  0  0  0  0  0  0  0  0  0
  -16.4857   -0.4176   -7.8503 H   0  0  0  0  0  0  0  0  0  0  0  0
  -17.0924   -2.1084   -7.8503 H   0  0  0  0  0  0  0  0  0  0  0  0
  -15.4180   -2.5770   -9.3950 H   0  0  0  0  0  0  0  0  0  0  0  0
  -11.7230   -0.2099   -9.8289 H   0  0  0  0  0  0  0  0  0  0  0  0
   -9.0907   -0.7468  -14.0166 H   0  0  0  0  0  0  0  0  0  0  0  0
   -9.5602    1.1606  -15.5541 H   0  0  0  0  0  0  0  0  0  0  0  0
  -12.2220    3.5340  -14.9120 H   0  0  0  0  0  0  0  0  0  0  0  0
  -12.0880    4.7820  -16.5560 H   0  0  0  0  0  0  0  0  0  0  0  0
   -9.9068    7.0638  -15.3731 H   0  0  0  0  0  0  0  0  0  0  0  0
   -8.9680    9.0265  -16.5821 H   0  0  0  0  0  0  0  0  0  0  0  0
  -11.1652    5.3531  -19.1271 H   0  0  0  0  0  0  0  0  0  0  0  0
  -11.7493    0.9529  -11.0601 H   0  0  0  0  0  0  0  0  0  0  0  0
  -10.8670   -3.5354  -12.4779 H   0  0  0  0  0  0  0  0  0  0  0  0
  -12.8564   -4.6912  -11.5809 H   0  0  0  0  0  0  0  0  0  0  0  0
  1  2  1  0
  2  3  1  0
  3  4  2  0
  3  5  1  0
  5  6  2  0
  6  7  1  0
  7  8  1  0
  8  9  1  0
  9 10  1  0
 10 11  2  0
 11 12  1  0
 12 13  1  0
 13 14  1  0
 14 15  2  0
 14 16  1  0
 16 17  1  0
 17 18  1  0
 18 19  2  0
 19 20  1  0
 20 21  1  0
 20 22  2  0
 22 23  1  0
 23 24  1  0
 23 25  1  0
 23 26  1  0
 22 27  1  0
 12 28  2  0
 28 29  1  0
 28 30  1  0
  7 31  2  0
 31 32  1  0
 32 33  2  0
 33  5  1  0
 30  9  2  0
 27 17  2  0
  1 34  1  0
  1 35  1  0
  1 36  1  0
  2 37  1  0
  6 38  1  0
 10 39  1  0
 11 40  1  0
 13 41  1  0
 16 42  1  0
 18 43  1  0
 19 44  1  0
 27 45  1  0
 30 46  1  0
 31 47  1  0
 32 48  1  0
M  END
>  <meeko>  (7) 
{"is_sidechain": false}

>  <vina_affinity_kcal_mol>  (7) 
-8.735

>  <pose_rank>  (7) 
7

$$$$

     RDKit          3D

 48 50  0  0  0  0  0  0  0  0999 V2000
  -10.5080   -1.1530   -4.4330 C   0  0  0  0  0  0  0  0  0  0  0  0
  -11.7490   -1.3520   -5.1310 N   0  0  0  0  0  0  0  0  0  0  0  0
  -12.9160   -0.7150   -4.7650 C   0  0  0  0  0  0  0  0  0  0  0  0
  -13.0310   -0.0020   -3.7740 O   0  0  0  0  0  0  0  0  0  0  0  0
  -14.0630   -0.9470   -5.7000 C   0  0  0  0  0  0  0  0  0  0  0  0
  -13.8160   -1.2270   -7.0350 C   0  0  0  0  0  0  0  0  0  0  0  0
  -14.9130   -1.4530   -7.8540 C   0  0  0  0  0  0  0  0  0  0  0  0
  -14.6630   -1.6980   -9.1860 O   0  0  0  0  0  0  0  0  0  0  0  0
  -13.7770   -0.8560   -9.8180 C   0  0  0  0  0  0  0  0  0  0  0  0
  -12.5040   -1.3570  -10.0930 C   0  0  0  0  0  0  0  0  0  0  0  0
  -11.5620   -0.5650  -10.7600 C   0  0  0  0  0  0  0  0  0  0  0  0
  -11.8960    0.7260  -11.1680 C   0  0  0  0  0  0  0  0  0  0  0  0
  -11.0230    1.5990  -11.8540 N   0  0  0  0  0  0  0  0  0  0  0  0
  -11.0350    1.9140  -13.2020 C   0  0  0  0  0  0  0  0  0  0  0  0
  -11.7750    1.4040  -14.0310 O   0  0  0  0  0  0  0  0  0  0  0  0
  -10.0880    2.8900  -13.4760 N   0  0  0  0  0  0  0  0  0  0  0  0
   -9.7260    3.4070  -14.7370 C   0  0  0  0  0  0  0  0  0  0  0  0
   -8.5800    2.8800  -15.3380 C   0  0  0  0  0  0  0  0  0  0  0  0
   -8.1610    3.3350  -16.5890 C   0  0  0  0  0  0  0  0  0  0  0  0
   -8.8880    4.3220  -17.2600 C   0  0  0  0  0  0  0  0  0  0  0  0
   -8.3030    4.8300  -18.8020 Cl  0  0  0  0  0  0  0  0  0  0  0  0
  -10.0450    4.8580  -16.6850 C   0  0  0  0  0  0  0  0  0  0  0  0
  -10.8500    5.9160  -17.3890 C   0  0  0  0  0  0  0  0  0  0  0  0
  -10.1700    7.0850  -17.5510 F   0  0  0  0  0  0  0  0  0  0  0  0
  -11.9960    6.2550  -16.7290 F   0  0  0  0  0  0  0  0  0  0  0  0
  -11.2560    5.5340  -18.6320 F   0  0  0  0  0  0  0  0  0  0  0  0
  -10.4530    4.3870  -15.4190 C   0  0  0  0  0  0  0  0  0  0  0  0
  -13.1920    1.1960  -10.9100 C   0  0  0  0  0  0  0  0  0  0  0  0
  -13.5350    2.4300  -11.3140 F   0  0  0  0  0  0  0  0  0  0  0  0
  -14.1360    0.4210  -10.2450 C   0  0  0  0  0  0  0  0  0  0  0  0
  -16.2050   -1.3560   -7.3410 C   0  0  0  0  0  0  0  0  0  0  0  0
  -16.3500   -1.0700   -5.9950 C   0  0  0  0  0  0  0  0  0  0  0  0
  -15.3120   -0.8700   -5.1550 N   0  0  0  0  0  0  0  0  0  0  0  0
  -10.6887   -1.1820   -3.3483 H   0  0  0  0  0  0  0  0  0  0  0  0
   -9.8007   -1.9492   -4.7083 H   0  0  0  0  0  0  0  0  0  0  0  0
  -10.0851   -0.1756   -4.7083 H   0  0  0  0  0  0  0  0  0  0  0  0
  -11.7650   -1.8280   -6.0290 H   0  0  0  0  0  0  0  0  0  0  0  0
  -12.7901   -1.2684   -7.4298 H   0  0  0  0  0  0  0  0  0  0  0  0
  -12.2395   -2.3791   -9.7842 H   0  0  0  0  0  0  0  0  0  0  0  0
  -10.5563   -0.9618  -10.9627 H   0  0  0  0  0  0  0  0  0  0  0  0
  -10.2210    1.9010  -11.3170 H   0  0  0  0  0  0  0  0  0  0  0  0
   -9.7220    3.3810  -12.6730 H   0  0  0  0  0  0  0  0  0  0  0  0
   -8.0029    2.0995  -14.8205 H   0  0  0  0  0  0  0  0  0  0  0  0
   -7.2544    2.9148  -17.0490 H   0  0  0  0  0  0  0  0  0  0  0  0
  -11.3628    4.7999  -14.9588 H   0  0  0  0  0  0  0  0  0  0  0  0
  -15.1483    0.8092  -10.0593 H   0  0  0  0  0  0  0  0  0  0  0  0
  -17.0834   -1.5024   -7.9868 H   0  0  0  0  0  0  0  0  0  0  0  0
  -17.3689   -1.0017   -5.5860 H   0  0  0  0  0  0  0  0  0  0  0  0
  1  2  1  0
  2  3  1  0
  3  4  2  0
  3  5  1  0
  5  6  2  0
  6  7  1  0
  7  8  1  0
  8  9  1  0
  9 10  1  0
 10 11  2  0
 11 12  1  0
 12 13  1  0
 13 14  1  0
 14 15  2  0
 14 16  1  0
 16 17  1  0
 17 18  1  0
 18 19  2  0
 19 20  1  0
 20 21  1  0
 20 22  2  0
 22 23  1  0
 23 24  1  0
 23 25  1  0
 23 26  1  0
 22 27  1  0
 12 28  2  0
 28 29  1  0
 28 30  1  0
  7 31  2  0
 31 32  1  0
 32 33  2  0
 33  5  1  0
 30  9  2  0
 27 17  2  0
  1 34  1  0
  1 35  1  0
  1 36  1  0
  2 37  1  0
  6 38  1  0
 10 39  1  0
 11 40  1  0
 13 41  1  0
 16 42  1  0
 18 43  1  0
 19 44  1  0
 27 45  1  0
 30 46  1  0
 31 47  1  0
 32 48  1  0
M  END
>  <meeko>  (8) 
{"is_sidechain": false}

>  <vina_affinity_kcal_mol>  (8) 
-8.699

>  <pose_rank>  (8) 
8

$$$$

     RDKit          3D

 48 50  0  0  0  0  0  0  0  0999 V2000
   -7.8360    0.1860   -6.1220 C   0  0  0  0  0  0  0  0  0  0  0  0
   -8.6730   -0.1840   -7.2300 N   0  0  0  0  0  0  0  0  0  0  0  0
  -10.0400   -0.3170   -7.1140 C   0  0  0  0  0  0  0  0  0  0  0  0
  -10.6550   -0.2250   -6.0570 O   0  0  0  0  0  0  0  0  0  0  0  0
  -10.7460   -0.5720   -8.4100 C   0  0  0  0  0  0  0  0  0  0  0  0
  -11.5190    0.4270   -8.9810 C   0  0  0  0  0  0  0  0  0  0  0  0
  -12.1350    0.1450  -10.1930 C   0  0  0  0  0  0  0  0  0  0  0  0
  -12.9270    1.1300  -10.7380 O   0  0  0  0  0  0  0  0  0  0  0  0
  -12.4860    1.7090  -11.9060 C   0  0  0  0  0  0  0  0  0  0  0  0
  -11.1380    1.5520  -12.2280 C   0  0  0  0  0  0  0  0  0  0  0  0
  -10.6270    2.0890  -13.4150 C   0  0  0  0  0  0  0  0  0  0  0  0
  -11.4680    2.7740  -14.2920 C   0  0  0  0  0  0  0  0  0  0  0  0
  -11.0550    3.3430  -15.5170 N   0  0  0  0  0  0  0  0  0  0  0  0
  -10.8380    4.6820  -15.7920 C   0  0  0  0  0  0  0  0  0  0  0  0
  -11.0580    5.6000  -15.0140 O   0  0  0  0  0  0  0  0  0  0  0  0
  -10.3360    4.8340  -17.0760 N   0  0  0  0  0  0  0  0  0  0  0  0
  -10.0780    6.0390  -17.7610 C   0  0  0  0  0  0  0  0  0  0  0  0
   -9.5270    7.0890  -17.0210 C   0  0  0  0  0  0  0  0  0  0  0  0
   -9.2370    8.3110  -17.6310 C   0  0  0  0  0  0  0  0  0  0  0  0
   -9.4900    8.4980  -18.9920 C   0  0  0  0  0  0  0  0  0  0  0  0
   -9.1050   10.0380  -19.6680 Cl  0  0  0  0  0  0  0  0  0  0  0  0
  -10.0320    7.4600  -19.7570 C   0  0  0  0  0  0  0  0  0  0  0  0
  -10.3070    7.6320  -21.2260 C   0  0  0  0  0  0  0  0  0  0  0  0
  -10.7320    6.4850  -21.8260 F   0  0  0  0  0  0  0  0  0  0  0  0
   -9.2140    8.0290  -21.9410 F   0  0  0  0  0  0  0  0  0  0  0  0
  -11.2590    8.5730  -21.4810 F   0  0  0  0  0  0  0  0  0  0  0  0
  -10.3190    6.2310  -19.1240 C   0  0  0  0  0  0  0  0  0  0  0  0
  -12.8260    2.8900  -13.9630 C   0  0  0  0  0  0  0  0  0  0  0  0
  -13.6540    3.5290  -14.8070 F   0  0  0  0  0  0  0  0  0  0  0  0
  -13.3450    2.3640  -12.7860 C   0  0  0  0  0  0  0  0  0  0  0  0
  -12.0020   -1.1150  -10.7720 C   0  0  0  0  0  0  0  0  0  0  0  0
  -11.2110   -2.0480  -10.1250 C   0  0  0  0  0  0  0  0  0  0  0  0
  -10.5700   -1.8090   -8.9610 N   0  0  0  0  0  0  0  0  0  0  0  0
   -8.3538   -0.0429   -5.1789 H   0  0  0  0  0  0  0  0  0  0  0  0
   -6.8936   -0.3794   -6.1695 H   0  0  0  0  0  0  0  0  0  0  0  0
   -7.6199    1.2635   -6.1695 H   0  0  0  0  0  0  0  0  0  0  0  0
   -8.3050   -0.1820   -8.1780 H   0  0  0  0  0  0  0  0  0  0  0  0
  -11.6397    1.4053   -8.4928 H   0  0  0  0  0  0  0  0  0  0  0  0
  -10.4729    1.0031  -11.5452 H   0  0  0  0  0  0  0  0  0  0  0  0
   -9.5604    1.9707  -13.6568 H   0  0  0  0  0  0  0  0  0  0  0  0
  -11.0660    2.7060  -16.3020 H   0  0  0  0  0  0  0  0  0  0  0  0
   -9.9860    3.9920  -17.5110 H   0  0  0  0  0  0  0  0  0  0  0  0
   -9.3202    6.9515  -15.9494 H   0  0  0  0  0  0  0  0  0  0  0  0
   -8.8071    9.1308  -17.0367 H   0  0  0  0  0  0  0  0  0  0  0  0
  -10.7416    5.4064  -19.7169 H   0  0  0  0  0  0  0  0  0  0  0  0
  -14.4155    2.4631  -12.5532 H   0  0  0  0  0  0  0  0  0  0  0  0
  -12.5108   -1.3610  -11.7157 H   0  0  0  0  0  0  0  0  0  0  0  0
  -11.0980   -3.0407  -10.5851 H   0  0  0  0  0  0  0  0  0  0  0  0
  1  2  1  0
  2  3  1  0
  3  4  2  0
  3  5  1  0
  5  6  2  0
  6  7  1  0
  7  8  1  0
  8  9  1  0
  9 10  1  0
 10 11  2  0
 11 12  1  0
 12 13  1  0
 13 14  1  0
 14 15  2  0
 14 16  1  0
 16 17  1  0
 17 18  1  0
 18 19  2  0
 19 20  1  0
 20 21  1  0
 20 22  2  0
 22 23  1  0
 23 24  1  0
 23 25  1  0
 23 26  1  0
 22 27  1  0
 12 28  2  0
 28 29  1  0
 28 30  1  0
  7 31  2  0
 31 32  1  0
 32 33  2  0
 33  5  1  0
 30  9  2  0
 27 17  2  0
  1 34  1  0
  1 35  1  0
  1 36  1  0
  2 37  1  0
  6 38  1  0
 10 39  1  0
 11 40  1  0
 13 41  1  0
 16 42  1  0
 18 43  1  0
 19 44  1  0
 27 45  1  0
 30 46  1  0
 31 47  1  0
 32 48  1  0
M  END
>  <meeko>  (9) 
{"is_sidechain": false}

>  <vina_affinity_kcal_mol>  (9) 
-8.498

>  <pose_rank>  (9) 
9

$$$$

     RDKit          3D

 48 50  0  0  0  0  0  0  0  0999 V2000
  -21.6890   -2.1100   -5.9660 C   0  0  0  0  0  0  0  0  0  0  0  0
  -20.3150   -2.1360   -6.3850 N   0  0  0  0  0  0  0  0  0  0  0  0
  -19.6160   -0.9900   -6.7020 C   0  0  0  0  0  0  0  0  0  0  0  0
  -20.1120    0.1300   -6.7470 O   0  0  0  0  0  0  0  0  0  0  0  0
  -18.1610   -1.2150   -6.9800 C   0  0  0  0  0  0  0  0  0  0  0  0
  -17.3070   -0.1290   -7.0930 C   0  0  0  0  0  0  0  0  0  0  0  0
  -15.9650   -0.3930   -7.3310 C   0  0  0  0  0  0  0  0  0  0  0  0
  -15.1280    0.6900   -7.4740 O   0  0  0  0  0  0  0  0  0  0  0  0
  -14.2700    0.6770   -8.5500 C   0  0  0  0  0  0  0  0  0  0  0  0
  -14.7540    1.1760   -9.7600 C   0  0  0  0  0  0  0  0  0  0  0  0
  -13.9260    1.2200  -10.8880 C   0  0  0  0  0  0  0  0  0  0  0  0
  -12.6060    0.7770  -10.8060 C   0  0  0  0  0  0  0  0  0  0  0  0
  -11.6900    0.7890  -11.8810 N   0  0  0  0  0  0  0  0  0  0  0  0
  -11.4160    1.8370  -12.7430 C   0  0  0  0  0  0  0  0  0  0  0  0
  -12.0050    2.9090  -12.7470 O   0  0  0  0  0  0  0  0  0  0  0  0
  -10.3800    1.4960  -13.5990 N   0  0  0  0  0  0  0  0  0  0  0  0
   -9.8740    2.2490  -14.6790 C   0  0  0  0  0  0  0  0  0  0  0  0
   -8.8200    1.6920  -15.4080 C   0  0  0  0  0  0  0  0  0  0  0  0
   -8.2700    2.3740  -16.4950 C   0  0  0  0  0  0  0  0  0  0  0  0
   -8.7720    3.6230  -16.8710 C   0  0  0  0  0  0  0  0  0  0  0  0
   -8.0360    4.4000  -18.2250 Cl  0  0  0  0  0  0  0  0  0  0  0  0
   -9.8330    4.1980  -16.1640 C   0  0  0  0  0  0  0  0  0  0  0  0
  -10.3970    5.5380  -16.5520 C   0  0  0  0  0  0  0  0  0  0  0  0
  -10.8920    5.5600  -17.8200 F   0  0  0  0  0  0  0  0  0  0  0  0
   -9.4790    6.5470  -16.5060 F   0  0  0  0  0  0  0  0  0  0  0  0
  -11.4110    5.9420  -15.7370 F   0  0  0  0  0  0  0  0  0  0  0  0
  -10.3760    3.4940  -15.0670 C   0  0  0  0  0  0  0  0  0  0  0  0
  -12.1330    0.3110   -9.5710 C   0  0  0  0  0  0  0  0  0  0  0  0
  -10.8570   -0.1000   -9.4700 F   0  0  0  0  0  0  0  0  0  0  0  0
  -12.9450    0.2590   -8.4440 C   0  0  0  0  0  0  0  0  0  0  0  0
  -15.5240   -1.7050   -7.4890 C   0  0  0  0  0  0  0  0  0  0  0  0
  -16.4540   -2.7220   -7.3620 C   0  0  0  0  0  0  0  0  0  0  0  0
  -17.7630   -2.5140   -7.1020 N   0  0  0  0  0  0  0  0  0  0  0  0
  -21.7373   -2.1091   -4.8671 H   0  0  0  0  0  0  0  0  0  0  0  0
  -22.1739   -1.2025   -6.3551 H   0  0  0  0  0  0  0  0  0  0  0  0
  -22.2079   -2.9985   -6.3551 H   0  0  0  0  0  0  0  0  0  0  0  0
  -19.7610   -2.9820   -6.2850 H   0  0  0  0  0  0  0  0  0  0  0  0
  -17.6783    0.9021   -6.9978 H   0  0  0  0  0  0  0  0  0  0  0  0
  -15.7910    1.5365   -9.8278 H   0  0  0  0  0  0  0  0  0  0  0  0
  -14.3174    1.6049  -11.8413 H   0  0  0  0  0  0  0  0  0  0  0  0
  -11.3130   -0.1180  -12.1220 H   0  0  0  0  0  0  0  0  0  0  0  0
   -9.8400    0.6860  -13.3310 H   0  0  0  0  0  0  0  0  0  0  0  0
   -8.4202    0.7077  -15.1230 H   0  0  0  0  0  0  0  0  0  0  0  0
   -7.4378    1.9263  -17.0581 H   0  0  0  0  0  0  0  0  0  0  0  0
  -11.2126    3.9354  -14.5055 H   0  0  0  0  0  0  0  0  0  0  0  0
  -12.5484   -0.1058   -7.4850 H   0  0  0  0  0  0  0  0  0  0  0  0
  -14.4689   -1.9259   -7.7080 H   0  0  0  0  0  0  0  0  0  0  0  0
  -16.1072   -3.7593   -7.4795 H   0  0  0  0  0  0  0  0  0  0  0  0
  1  2  1  0
  2  3  1  0
  3  4  2  0
  3  5  1  0
  5  6  2  0
  6  7  1  0
  7  8  1  0
  8  9  1  0
  9 10  1  0
 10 11  2  0
 11 12  1  0
 12 13  1  0
 13 14  1  0
 14 15  2  0
 14 16  1  0
 16 17  1  0
 17 18  1  0
 18 19  2  0
 19 20  1  0
 20 21  1  0
 20 22  2  0
 22 23  1  0
 23 24  1  0
 23 25  1  0
 23 26  1  0
 22 27  1  0
 12 28  2  0
 28 29  1  0
 28 30  1  0
  7 31  2  0
 31 32  1  0
 32 33  2  0
 33  5  1  0
 30  9  2  0
 27 17  2  0
  1 34  1  0
  1 35  1  0
  1 36  1  0
  2 37  1  0
  6 38  1  0
 10 39  1  0
 11 40  1  0
 13 41  1  0
 16 42  1  0
 18 43  1  0
 19 44  1  0
 27 45  1  0
 30 46  1  0
 31 47  1  0
 32 48  1  0
M  END
>  <meeko>  (10) 
{"is_sidechain": false}

>  <vina_affinity_kcal_mol>  (10) 
-8.47

>  <pose_rank>  (10) 
10

$$$$
