
     RDKit          3D

 66 70  0  0  0  0  0  0  0  0999 V2000
    6.4754   -3.4565    2.0362 C   0  0  0  0  0  0  0  0  0  0  0  0
    5.0031   -3.1884    1.8801 C   0  0  0  0  0  0  0  0  0  0  0  0
    4.0761   -4.0683    2.4598 C   0  0  0  0  0  0  0  0  0  0  0  0
    2.7040   -3.8414    2.3332 C   0  0  0  0  0  0  0  0  0  0  0  0
    2.2374   -2.7348    1.6174 C   0  0  0  0  0  0  0  0  0  0  0  0
    0.7658   -2.5309    1.5010 C   0  0  0  0  0  0  0  0  0  0  0  0
    0.0570   -2.8774    2.4376 O   0  0  0  0  0  0  0  0  0  0  0  0
    0.3453   -1.9947    0.2968 N   0  0  0  0  0  0  0  0  0  0  0  0
   -0.9726   -1.6610   -0.0790 C   0  0  0  0  0  0  0  0  0  0  0  0
   -1.1670   -1.2107   -1.3862 C   0  0  0  0  0  0  0  0  0  0  0  0
   -2.4394   -0.8489   -1.8336 C   0  0  0  0  0  0  0  0  0  0  0  0
   -3.5544   -0.9283   -0.9830 C   0  0  0  0  0  0  0  0  0  0  0  0
   -4.9094   -0.5018   -1.5183 C   0  0  0  0  0  0  0  0  0  0  0  0
   -5.4562    0.6493   -0.7995 N   0  0  0  0  0  0  0  0  0  0  0  0
   -6.8748    0.8626   -1.1129 C   0  0  0  0  0  0  0  0  0  0  0  0
   -7.5091    1.9986   -0.2660 C   0  0  0  0  0  0  0  0  0  0  0  0
   -6.6247    3.1314    0.0880 N   0  0  0  0  0  0  0  0  0  0  0  0
   -6.1375    2.9981    1.4633 C   0  0  0  0  0  0  0  0  0  0  0  0
   -5.4985    3.2010   -0.8576 C   0  0  0  0  0  0  0  0  0  0  0  0
   -4.6864    1.8889   -1.0330 C   0  0  0  0  0  0  0  0  0  0  0  0
   -3.3743   -1.3918    0.3400 C   0  0  0  0  0  0  0  0  0  0  0  0
   -4.5140   -1.4944    1.3366 C   0  0  0  0  0  0  0  0  0  0  0  0
   -4.2563   -2.3910    2.3364 F   0  0  0  0  0  0  0  0  0  0  0  0
   -5.6914   -1.9193    0.7959 F   0  0  0  0  0  0  0  0  0  0  0  0
   -4.7778   -0.3204    1.9733 F   0  0  0  0  0  0  0  0  0  0  0  0
   -2.0747   -1.7414    0.7733 C   0  0  0  0  0  0  0  0  0  0  0  0
    3.1521   -1.8374    1.0551 C   0  0  0  0  0  0  0  0  0  0  0  0
    4.5287   -2.0645    1.1801 C   0  0  0  0  0  0  0  0  0  0  0  0
    5.4262   -1.1206    0.5822 C   0  0  0  0  0  0  0  0  0  0  0  0
    6.1634   -0.3199    0.0746 C   0  0  0  0  0  0  0  0  0  0  0  0
    7.0247    0.6338   -0.5270 C   0  0  0  0  0  0  0  0  0  0  0  0
    8.4016    0.6671   -0.5241 C   0  0  0  0  0  0  0  0  0  0  0  0
    8.8773    1.7552   -1.2147 N   0  0  0  0  0  0  0  0  0  0  0  0
    7.8015    2.3869   -1.6364 C   0  0  0  0  0  0  0  0  0  0  0  0
    7.6615    3.5721   -2.3930 C   0  0  0  0  0  0  0  0  0  0  0  0
    6.4357    4.0149   -2.6975 C   0  0  0  0  0  0  0  0  0  0  0  0
    5.2863    3.2136   -2.2119 C   0  0  0  0  0  0  0  0  0  0  0  0
    5.3477    2.1216   -1.5178 N   0  0  0  0  0  0  0  0  0  0  0  0
    6.6367    1.7395   -1.2452 N   0  0  0  0  0  0  0  0  0  0  0  0
    6.9525   -3.5519    1.0554 H   0  0  0  0  0  0  0  0  0  0  0  0
    6.9519   -2.6469    2.5984 H   0  0  0  0  0  0  0  0  0  0  0  0
    6.6575   -4.3893    2.5805 H   0  0  0  0  0  0  0  0  0  0  0  0
    4.4155   -4.9380    3.0193 H   0  0  0  0  0  0  0  0  0  0  0  0
    1.9987   -4.5312    2.7939 H   0  0  0  0  0  0  0  0  0  0  0  0
    1.0455   -1.8876   -0.4255 H   0  0  0  0  0  0  0  0  0  0  0  0
   -0.3325   -1.1311   -2.0782 H   0  0  0  0  0  0  0  0  0  0  0  0
   -2.5533   -0.4953   -2.8567 H   0  0  0  0  0  0  0  0  0  0  0  0
   -5.5766   -1.3691   -1.4370 H   0  0  0  0  0  0  0  0  0  0  0  0
   -4.8492   -0.2885   -2.5942 H   0  0  0  0  0  0  0  0  0  0  0  0
   -6.9892    1.1016   -2.1791 H   0  0  0  0  0  0  0  0  0  0  0  0
   -7.4476   -0.0542   -0.9264 H   0  0  0  0  0  0  0  0  0  0  0  0
   -8.3519    2.4060   -0.8385 H   0  0  0  0  0  0  0  0  0  0  0  0
   -7.9555    1.5644    0.6385 H   0  0  0  0  0  0  0  0  0  0  0  0
   -5.5856    2.0698    1.6390 H   0  0  0  0  0  0  0  0  0  0  0  0
   -6.9768    3.0337    2.1671 H   0  0  0  0  0  0  0  0  0  0  0  0
   -5.4841    3.8393    1.7206 H   0  0  0  0  0  0  0  0  0  0  0  0
   -4.8203    4.0199   -0.5866 H   0  0  0  0  0  0  0  0  0  0  0  0
   -5.9118    3.4814   -1.8363 H   0  0  0  0  0  0  0  0  0  0  0  0
   -3.8481    1.9026   -0.3261 H   0  0  0  0  0  0  0  0  0  0  0  0
   -4.2595    1.9059   -2.0442 H   0  0  0  0  0  0  0  0  0  0  0  0
   -1.9534   -2.0744    1.8020 H   0  0  0  0  0  0  0  0  0  0  0  0
    2.8075   -0.9416    0.5437 H   0  0  0  0  0  0  0  0  0  0  0  0
    9.0788   -0.0375   -0.0582 H   0  0  0  0  0  0  0  0  0  0  0  0
    8.5554    4.0975   -2.7087 H   0  0  0  0  0  0  0  0  0  0  0  0
    6.2485    4.9126   -3.2703 H   0  0  0  0  0  0  0  0  0  0  0  0
    4.2944    3.6114   -2.4852 H   0  0  0  0  0  0  0  0  0  0  0  0
  1  2  1  0
  2  3  1  0
  3  4  2  0
  4  5  1  0
  5  6  1  0
  6  7  2  0
  6  8  1  0
  8  9  1  0
  9 10  1  0
 10 11  2  0
 11 12  1  0
 12 13  1  0
 13 14  1  0
 14 15  1  0
 15 16  1  0
 16 17  1  0
 17 18  1  0
 17 19  1  0
 19 20  1  0
 12 21  2  0
 21 22  1  0
 22 23  1  0
 22 24  1  0
 22 25  1  0
 21 26  1  0
  5 27  2  0
 27 28  1  0
 28 29  1  0
 29 30  3  0
 30 31  1  0
 31 32  2  0
 32 33  1  0
 33 34  2  0
 34 35  1  0
 35 36  2  0
 36 37  1  0
 37 38  2  0
 38 39  1  0
 28  2  2  0
 39 31  1  0
 26  9  2  0
 39 34  1  0
 20 14  1  0
  1 40  1  0
  1 41  1  0
  1 42  1  0
  3 43  1  0
  4 44  1  0
  8 45  1  0
 10 46  1  0
 11 47  1  0
 13 48  1  0
 13 49  1  0
 15 50  1  0
 15 51  1  0
 16 52  1  0
 16 53  1  0
 18 54  1  0
 18 55  1  0
 18 56  1  0
 19 57  1  0
 19 58  1  0
 20 59  1  0
 20 60  1  0
 26 61  1  0
 27 62  1  0
 32 63  1  0
 35 64  1  0
 36 65  1  0
 37 66  1  0
M  END
$$$$
