
     RDKit          3D

 66 70  0  0  0  0  0  0  0  0999 V2000
  -42.4100  160.7460    0.2370 C   0  0  0  0  0  0  0  0  0  0  0  0
  -41.2630  160.0140    0.8780 C   0  0  0  0  0  0  0  0  0  0  0  0
  -41.5230  159.0530    1.8670 C   0  0  0  0  0  0  0  0  0  0  0  0
  -40.4770  158.3570    2.4760 C   0  0  0  0  0  0  0  0  0  0  0  0
  -39.1530  158.6150    2.1090 C   0  0  0  0  0  0  0  0  0  0  0  0
  -38.0660  157.8530    2.7850 C   0  0  0  0  0  0  0  0  0  0  0  0
  -36.9170  158.0100    2.3920 O   0  0  0  0  0  0  0  0  0  0  0  0
  -38.4890  156.9970    3.7860 N   0  0  0  0  0  0  0  0  0  0  0  0
  -37.6880  156.1840    4.6150 C   0  0  0  0  0  0  0  0  0  0  0  0
  -38.3480  155.3580    5.5260 C   0  0  0  0  0  0  0  0  0  0  0  0
  -37.6280  154.5320    6.3910 C   0  0  0  0  0  0  0  0  0  0  0  0
  -36.2240  154.5090    6.3660 C   0  0  0  0  0  0  0  0  0  0  0  0
  -35.4930  153.6060    7.3430 C   0  0  0  0  0  0  0  0  0  0  0  0
  -35.8120  152.1920    7.1420 N   0  0  0  0  0  0  0  0  0  0  0  0
  -35.1660  151.3390    8.1480 C   0  0  0  0  0  0  0  0  0  0  0  0
  -35.5910  149.8510    8.0310 C   0  0  0  0  0  0  0  0  0  0  0  0
  -35.8700  149.3490    6.6680 N   0  0  0  0  0  0  0  0  0  0  0  0
  -37.3120  149.3070    6.4150 C   0  0  0  0  0  0  0  0  0  0  0  0
  -35.1920  150.1980    5.6730 C   0  0  0  0  0  0  0  0  0  0  0  0
  -35.4830  151.7190    5.7800 C   0  0  0  0  0  0  0  0  0  0  0  0
  -35.5420  155.3320    5.4410 C   0  0  0  0  0  0  0  0  0  0  0  0
  -34.0280  155.3890    5.3530 C   0  0  0  0  0  0  0  0  0  0  0  0
  -33.5940  156.1670    4.3150 F   0  0  0  0  0  0  0  0  0  0  0  0
  -33.4360  154.1800    5.1410 F   0  0  0  0  0  0  0  0  0  0  0  0
  -33.4450  155.9200    6.4630 F   0  0  0  0  0  0  0  0  0  0  0  0
  -36.2930  156.1680    4.5850 C   0  0  0  0  0  0  0  0  0  0  0  0
  -38.8820  159.5530    1.1060 C   0  0  0  0  0  0  0  0  0  0  0  0
  -39.9310  160.2540    0.4970 C   0  0  0  0  0  0  0  0  0  0  0  0
  -39.6030  161.2080   -0.5210 C   0  0  0  0  0  0  0  0  0  0  0  0
  -39.3100  162.0040   -1.3710 C   0  0  0  0  0  0  0  0  0  0  0  0
  -38.9650  162.9360   -2.3840 C   0  0  0  0  0  0  0  0  0  0  0  0
  -38.7850  164.2970   -2.2720 C   0  0  0  0  0  0  0  0  0  0  0  0
  -38.4590  164.8600   -3.4820 N   0  0  0  0  0  0  0  0  0  0  0  0
  -38.4420  163.8540   -4.3310 C   0  0  0  0  0  0  0  0  0  0  0  0
  -38.1760  163.8200   -5.7190 C   0  0  0  0  0  0  0  0  0  0  0  0
  -38.2230  162.6490   -6.3660 C   0  0  0  0  0  0  0  0  0  0  0  0
  -38.5540  161.4450   -5.5670 C   0  0  0  0  0  0  0  0  0  0  0  0
  -38.8050  161.4100   -4.2960 N   0  0  0  0  0  0  0  0  0  0  0  0
  -38.7420  162.6490   -3.7090 N   0  0  0  0  0  0  0  0  0  0  0  0
  -43.0622  161.1622    1.0189 H   0  0  0  0  0  0  0  0  0  0  0  0
  -42.0202  161.5627   -0.3884 H   0  0  0  0  0  0  0  0  0  0  0  0
  -42.9865  160.0485   -0.3884 H   0  0  0  0  0  0  0  0  0  0  0  0
  -42.5613  158.8460    2.1654 H   0  0  0  0  0  0  0  0  0  0  0  0
  -40.6954  157.6033    3.2469 H   0  0  0  0  0  0  0  0  0  0  0  0
  -39.4890  156.8840    3.8990 H   0  0  0  0  0  0  0  0  0  0  0  0
  -39.4474  155.3578    5.5628 H   0  0  0  0  0  0  0  0  0  0  0  0
  -38.1681  153.8899    7.1024 H   0  0  0  0  0  0  0  0  0  0  0  0
  -34.4100  153.7460    7.2108 H   0  0  0  0  0  0  0  0  0  0  0  0
  -35.8142  153.8811    8.3585 H   0  0  0  0  0  0  0  0  0  0  0  0
  -34.0757  151.4052    8.0182 H   0  0  0  0  0  0  0  0  0  0  0  0
  -35.4792  151.6978    9.1395 H   0  0  0  0  0  0  0  0  0  0  0  0
  -34.7812  149.2380    8.4535 H   0  0  0  0  0  0  0  0  0  0  0  0
  -36.5477  149.7786    8.5691 H   0  0  0  0  0  0  0  0  0  0  0  0
  -37.8521  149.2913    7.3732 H   0  0  0  0  0  0  0  0  0  0  0  0
  -37.6096  150.1969    5.8409 H   0  0  0  0  0  0  0  0  0  0  0  0
  -37.5573  148.4013    5.8409 H   0  0  0  0  0  0  0  0  0  0  0  0
  -34.1076  150.0520    5.7862 H   0  0  0  0  0  0  0  0  0  0  0  0
  -35.5829  149.8848    4.6936 H   0  0  0  0  0  0  0  0  0  0  0  0
  -34.5917  152.2633    5.4345 H   0  0  0  0  0  0  0  0  0  0  0  0
  -36.3732  151.9087    5.1623 H   0  0  0  0  0  0  0  0  0  0  0  0
  -35.7646  156.8231    3.8767 H   0  0  0  0  0  0  0  0  0  0  0  0
  -37.8435  159.7401    0.7954 H   0  0  0  0  0  0  0  0  0  0  0  0
  -38.8890  164.8611   -1.3334 H   0  0  0  0  0  0  0  0  0  0  0  0
  -37.9331  164.7456   -6.2614 H   0  0  0  0  0  0  0  0  0  0  0  0
  -38.0242  162.5829   -7.4459 H   0  0  0  0  0  0  0  0  0  0  0  0
  -38.5901  160.4868   -6.1060 H   0  0  0  0  0  0  0  0  0  0  0  0
  1  2  1  0
  2  3  1  0
  3  4  2  0
  4  5  1  0
  5  6  1  0
  6  7  2  0
  6  8  1  0
  8  9  1  0
  9 10  1  0
 10 11  2  0
 11 12  1  0
 12 13  1  0
 13 14  1  0
 14 15  1  0
 15 16  1  0
 16 17  1  0
 17 18  1  0
 17 19  1  0
 19 20  1  0
 12 21  2  0
 21 22  1  0
 22 23  1  0
 22 24  1  0
 22 25  1  0
 21 26  1  0
  5 27  2  0
 27 28  1  0
 28 29  1  0
 29 30  3  0
 30 31  1  0
 31 32  2  0
 32 33  1  0
 33 34  2  0
 34 35  1  0
 35 36  2  0
 36 37  1  0
 37 38  2  0
 38 39  1  0
 28  2  2  0
 39 31  1  0
 26  9  2  0
 39 34  1  0
 20 14  1  0
  1 40  1  0
  1 41  1  0
  1 42  1  0
  3 43  1  0
  4 44  1  0
  8 45  1  0
 10 46  1  0
 11 47  1  0
 13 48  1  0
 13 49  1  0
 15 50  1  0
 15 51  1  0
 16 52  1  0
 16 53  1  0
 18 54  1  0
 18 55  1  0
 18 56  1  0
 19 57  1  0
 19 58  1  0
 20 59  1  0
 20 60  1  0
 26 61  1  0
 27 62  1  0
 32 63  1  0
 35 64  1  0
 36 65  1  0
 37 66  1  0
M  END
>  <meeko>  (1) 
{"is_sidechain": false}

>  <vina_affinity_kcal_mol>  (1) 
-12.801

>  <pose_rank>  (1) 
1

$$$$

     RDKit          3D

 66 70  0  0  0  0  0  0  0  0999 V2000
  -41.7110  158.5070    3.0410 C   0  0  0  0  0  0  0  0  0  0  0  0
  -40.9330  158.8930    1.8130 C   0  0  0  0  0  0  0  0  0  0  0  0
  -41.5810  159.5790    0.7730 C   0  0  0  0  0  0  0  0  0  0  0  0
  -40.8820  159.9520   -0.3770 C   0  0  0  0  0  0  0  0  0  0  0  0
  -39.5260  159.6380   -0.5090 C   0  0  0  0  0  0  0  0  0  0  0  0
  -38.8180  160.0490   -1.7540 C   0  0  0  0  0  0  0  0  0  0  0  0
  -37.7070  159.5820   -1.9700 O   0  0  0  0  0  0  0  0  0  0  0  0
  -39.4950  160.9730   -2.5310 N   0  0  0  0  0  0  0  0  0  0  0  0
  -39.0890  161.5110   -3.7700 C   0  0  0  0  0  0  0  0  0  0  0  0
  -39.1620  160.6720   -4.8830 C   0  0  0  0  0  0  0  0  0  0  0  0
  -38.7690  161.1240   -6.1440 C   0  0  0  0  0  0  0  0  0  0  0  0
  -38.2910  162.4330   -6.3260 C   0  0  0  0  0  0  0  0  0  0  0  0
  -37.8580  162.8630   -7.7150 C   0  0  0  0  0  0  0  0  0  0  0  0
  -37.5950  161.7240   -8.5950 N   0  0  0  0  0  0  0  0  0  0  0  0
  -36.3800  161.0000   -8.2000 C   0  0  0  0  0  0  0  0  0  0  0  0
  -36.1510  159.7150   -9.0400 C   0  0  0  0  0  0  0  0  0  0  0  0
  -36.5870  159.7630  -10.4530 N   0  0  0  0  0  0  0  0  0  0  0  0
  -37.8790  159.0930  -10.6200 C   0  0  0  0  0  0  0  0  0  0  0  0
  -36.6640  161.1630  -10.9050 C   0  0  0  0  0  0  0  0  0  0  0  0
  -37.5230  162.1070  -10.0210 C   0  0  0  0  0  0  0  0  0  0  0  0
  -38.2210  163.2970   -5.2090 C   0  0  0  0  0  0  0  0  0  0  0  0
  -37.7020  164.7200   -5.3030 C   0  0  0  0  0  0  0  0  0  0  0  0
  -38.3010  165.5560   -4.4020 F   0  0  0  0  0  0  0  0  0  0  0  0
  -37.9180  165.3130   -6.5110 F   0  0  0  0  0  0  0  0  0  0  0  0
  -36.3680  164.8220   -5.0510 F   0  0  0  0  0  0  0  0  0  0  0  0
  -38.6140  162.8120   -3.9410 C   0  0  0  0  0  0  0  0  0  0  0  0
  -38.8640  158.9760    0.5310 C   0  0  0  0  0  0  0  0  0  0  0  0
  -39.5650  158.5990    1.6850 C   0  0  0  0  0  0  0  0  0  0  0  0
  -38.8440  157.9180    2.7190 C   0  0  0  0  0  0  0  0  0  0  0  0
  -38.2250  157.3480    3.5760 C   0  0  0  0  0  0  0  0  0  0  0  0
  -37.4840  156.6820    4.5870 C   0  0  0  0  0  0  0  0  0  0  0  0
  -37.9100  155.7030    5.4570 C   0  0  0  0  0  0  0  0  0  0  0  0
  -36.8970  155.3070    6.2970 N   0  0  0  0  0  0  0  0  0  0  0  0
  -35.8600  156.0380    5.9490 C   0  0  0  0  0  0  0  0  0  0  0  0
  -34.5430  156.0780    6.4590 C   0  0  0  0  0  0  0  0  0  0  0  0
  -33.6570  156.9260    5.9220 C   0  0  0  0  0  0  0  0  0  0  0  0
  -34.1270  157.7800    4.8040 C   0  0  0  0  0  0  0  0  0  0  0  0
  -35.3170  157.7890    4.2920 N   0  0  0  0  0  0  0  0  0  0  0  0
  -36.1640  156.8970    4.9000 N   0  0  0  0  0  0  0  0  0  0  0  0
  -41.1422  158.7892    3.9392 H   0  0  0  0  0  0  0  0  0  0  0  0
  -42.6791  159.0293    3.0409 H   0  0  0  0  0  0  0  0  0  0  0  0
  -41.8807  157.4202    3.0409 H   0  0  0  0  0  0  0  0  0  0  0  0
  -42.6492  159.8248    0.8651 H   0  0  0  0  0  0  0  0  0  0  0  0
  -41.3999  160.4946   -1.1816 H   0  0  0  0  0  0  0  0  0  0  0  0
  -40.3460  161.3600   -2.1440 H   0  0  0  0  0  0  0  0  0  0  0  0
  -39.5333  159.6433   -4.7653 H   0  0  0  0  0  0  0  0  0  0  0  0
  -38.8344  160.4458   -7.0076 H   0  0  0  0  0  0  0  0  0  0  0  0
  -38.6557  163.4761   -8.1597 H   0  0  0  0  0  0  0  0  0  0  0  0
  -36.9218  163.4315   -7.6134 H   0  0  0  0  0  0  0  0  0  0  0  0
  -35.5145  161.6660   -8.3319 H   0  0  0  0  0  0  0  0  0  0  0  0
  -36.5007  160.6946   -7.1502 H   0  0  0  0  0  0  0  0  0  0  0  0
  -35.0728  159.4972   -9.0303 H   0  0  0  0  0  0  0  0  0  0  0  0
  -36.7775  158.9436   -8.5683 H   0  0  0  0  0  0  0  0  0  0  0  0
  -38.3073  158.8709   -9.6315 H   0  0  0  0  0  0  0  0  0  0  0  0
  -38.5634  159.7498  -11.1770 H   0  0  0  0  0  0  0  0  0  0  0  0
  -37.7364  158.1552  -11.1770 H   0  0  0  0  0  0  0  0  0  0  0  0
  -35.6408  161.5657  -10.9351 H   0  0  0  0  0  0  0  0  0  0  0  0
  -37.1602  161.1355  -11.8863 H   0  0  0  0  0  0  0  0  0  0  0  0
  -37.0942  163.1181  -10.0827 H   0  0  0  0  0  0  0  0  0  0  0  0
  -38.5500  162.0472  -10.4104 H   0  0  0  0  0  0  0  0  0  0  0  0
  -38.5437  163.4765   -3.0672 H   0  0  0  0  0  0  0  0  0  0  0  0
  -37.7909  158.7509    0.4428 H   0  0  0  0  0  0  0  0  0  0  0  0
  -38.9298  155.2911    5.4769 H   0  0  0  0  0  0  0  0  0  0  0  0
  -34.2485  155.4190    7.2890 H   0  0  0  0  0  0  0  0  0  0  0  0
  -32.6237  156.9868    6.2943 H   0  0  0  0  0  0  0  0  0  0  0  0
  -33.3934  158.4734    4.3669 H   0  0  0  0  0  0  0  0  0  0  0  0
  1  2  1  0
  2  3  1  0
  3  4  2  0
  4  5  1  0
  5  6  1  0
  6  7  2  0
  6  8  1  0
  8  9  1  0
  9 10  1  0
 10 11  2  0
 11 12  1  0
 12 13  1  0
 13 14  1  0
 14 15  1  0
 15 16  1  0
 16 17  1  0
 17 18  1  0
 17 19  1  0
 19 20  1  0
 12 21  2  0
 21 22  1  0
 22 23  1  0
 22 24  1  0
 22 25  1  0
 21 26  1  0
  5 27  2  0
 27 28  1  0
 28 29  1  0
 29 30  3  0
 30 31  1  0
 31 32  2  0
 32 33  1  0
 33 34  2  0
 34 35  1  0
 35 36  2  0
 36 37  1  0
 37 38  2  0
 38 39  1  0
 28  2  2  0
 39 31  1  0
 26  9  2  0
 39 34  1  0
 20 14  1  0
  1 40  1  0
  1 41  1  0
  1 42  1  0
  3 43  1  0
  4 44  1  0
  8 45  1  0
 10 46  1  0
 11 47  1  0
 13 48  1  0
 13 49  1  0
 15 50  1  0
 15 51  1  0
 16 52  1  0
 16 53  1  0
 18 54  1  0
 18 55  1  0
 18 56  1  0
 19 57  1  0
 19 58  1  0
 20 59  1  0
 20 60  1  0
 26 61  1  0
 27 62  1  0
 32 63  1  0
 35 64  1  0
 36 65  1  0
 37 66  1  0
M  END
>  <meeko>  (2) 
{"is_sidechain": false}

>  <vina_affinity_kcal_mol>  (2) 
-11.886

>  <pose_rank>  (2) 
2

$$$$

     RDKit          3D

 66 70  0  0  0  0  0  0  0  0999 V2000
  -41.9710  158.0150    2.7410 C   0  0  0  0  0  0  0  0  0  0  0  0
  -41.2560  158.9080    1.7640 C   0  0  0  0  0  0  0  0  0  0  0  0
  -42.0000  159.7790    0.9530 C   0  0  0  0  0  0  0  0  0  0  0  0
  -41.3610  160.6210    0.0400 C   0  0  0  0  0  0  0  0  0  0  0  0
  -39.9690  160.5990   -0.0820 C   0  0  0  0  0  0  0  0  0  0  0  0
  -39.3260  161.5100   -1.0700 C   0  0  0  0  0  0  0  0  0  0  0  0
  -38.9240  162.5990   -0.6800 O   0  0  0  0  0  0  0  0  0  0  0  0
  -39.2880  161.0290   -2.3670 N   0  0  0  0  0  0  0  0  0  0  0  0
  -38.7140  161.6500   -3.4960 C   0  0  0  0  0  0  0  0  0  0  0  0
  -37.8710  160.8710   -4.2900 C   0  0  0  0  0  0  0  0  0  0  0  0
  -37.2530  161.4130   -5.4190 C   0  0  0  0  0  0  0  0  0  0  0  0
  -37.4630  162.7540   -5.7830 C   0  0  0  0  0  0  0  0  0  0  0  0
  -36.7490  163.2950   -7.0090 C   0  0  0  0  0  0  0  0  0  0  0  0
  -37.4490  162.9680   -8.2520 N   0  0  0  0  0  0  0  0  0  0  0  0
  -36.8960  161.7640   -8.8870 C   0  0  0  0  0  0  0  0  0  0  0  0
  -37.7030  161.3260  -10.1380 C   0  0  0  0  0  0  0  0  0  0  0  0
  -38.3090  162.4070  -10.9460 N   0  0  0  0  0  0  0  0  0  0  0  0
  -39.7340  162.5470  -10.6390 C   0  0  0  0  0  0  0  0  0  0  0  0
  -37.5980  163.6740  -10.7010 C   0  0  0  0  0  0  0  0  0  0  0  0
  -37.4670  164.0930   -9.2110 C   0  0  0  0  0  0  0  0  0  0  0  0
  -38.3220  163.5510   -4.9940 C   0  0  0  0  0  0  0  0  0  0  0  0
  -38.5960  165.0130   -5.2970 C   0  0  0  0  0  0  0  0  0  0  0  0
  -39.2390  165.1880   -6.4910 F   0  0  0  0  0  0  0  0  0  0  0  0
  -37.4730  165.7800   -5.4020 F   0  0  0  0  0  0  0  0  0  0  0  0
  -39.3930  165.6140   -4.3720 F   0  0  0  0  0  0  0  0  0  0  0  0
  -38.9260  162.9830   -3.8500 C   0  0  0  0  0  0  0  0  0  0  0  0
  -39.2140  159.7530    0.7390 C   0  0  0  0  0  0  0  0  0  0  0  0
  -39.8550  158.9060    1.6540 C   0  0  0  0  0  0  0  0  0  0  0  0
  -39.0400  158.0530    2.4680 C   0  0  0  0  0  0  0  0  0  0  0  0
  -38.3420  157.3450    3.1410 C   0  0  0  0  0  0  0  0  0  0  0  0
  -37.5100  156.5170    3.9400 C   0  0  0  0  0  0  0  0  0  0  0  0
  -37.7600  155.2460    4.4070 C   0  0  0  0  0  0  0  0  0  0  0  0
  -36.7090  154.7720    5.1540 N   0  0  0  0  0  0  0  0  0  0  0  0
  -35.8220  155.7440    5.1480 C   0  0  0  0  0  0  0  0  0  0  0  0
  -34.5460  155.8370    5.7500 C   0  0  0  0  0  0  0  0  0  0  0  0
  -33.8260  156.9540    5.5910 C   0  0  0  0  0  0  0  0  0  0  0  0
  -34.4260  158.0380    4.7760 C   0  0  0  0  0  0  0  0  0  0  0  0
  -35.5850  158.0140    4.1990 N   0  0  0  0  0  0  0  0  0  0  0  0
  -36.2610  156.8390    4.4130 N   0  0  0  0  0  0  0  0  0  0  0  0
  -41.7243  158.3231    3.7677 H   0  0  0  0  0  0  0  0  0  0  0  0
  -43.0569  158.0958    2.5848 H   0  0  0  0  0  0  0  0  0  0  0  0
  -41.6546  156.9731    2.5848 H   0  0  0  0  0  0  0  0  0  0  0  0
  -43.0966  159.7987    1.0372 H   0  0  0  0  0  0  0  0  0  0  0  0
  -41.9554  161.3037   -0.5851 H   0  0  0  0  0  0  0  0  0  0  0  0
  -39.7840  160.1640   -2.5490 H   0  0  0  0  0  0  0  0  0  0  0  0
  -37.6915  159.8189   -4.0237 H   0  0  0  0  0  0  0  0  0  0  0  0
  -36.5928  160.7816   -6.0317 H   0  0  0  0  0  0  0  0  0  0  0  0
  -36.6767  164.3891   -6.9216 H   0  0  0  0  0  0  0  0  0  0  0  0
  -35.7542  162.8274   -7.0513 H   0  0  0  0  0  0  0  0  0  0  0  0
  -35.8592  161.9704   -9.1909 H   0  0  0  0  0  0  0  0  0  0  0  0
  -36.9481  160.9461   -8.1533 H   0  0  0  0  0  0  0  0  0  0  0  0
  -37.0234  160.7606  -10.7926 H   0  0  0  0  0  0  0  0  0  0  0  0
  -38.5513  160.7447   -9.7476 H   0  0  0  0  0  0  0  0  0  0  0  0
  -39.8744  162.5608   -9.5481 H   0  0  0  0  0  0  0  0  0  0  0  0
  -40.1112  163.4865  -11.0692 H   0  0  0  0  0  0  0  0  0  0  0  0
  -40.2868  161.6988  -11.0692 H   0  0  0  0  0  0  0  0  0  0  0  0
  -36.5838  163.5787  -11.1161 H   0  0  0  0  0  0  0  0  0  0  0  0
  -38.2036  164.4566  -11.1815 H   0  0  0  0  0  0  0  0  0  0  0  0
  -36.5299  164.6572   -9.0949 H   0  0  0  0  0  0  0  0  0  0  0  0
  -38.3621  164.6874   -8.9757 H   0  0  0  0  0  0  0  0  0  0  0  0
  -39.5796  163.6071   -3.2228 H   0  0  0  0  0  0  0  0  0  0  0  0
  -38.1164  159.7528    0.6661 H   0  0  0  0  0  0  0  0  0  0  0  0
  -38.6832  154.6823    4.2074 H   0  0  0  0  0  0  0  0  0  0  0  0
  -34.1491  154.9998    6.3430 H   0  0  0  0  0  0  0  0  0  0  0  0
  -32.8305  157.0634    6.0460 H   0  0  0  0  0  0  0  0  0  0  0  0
  -33.8277  158.9523    4.6492 H   0  0  0  0  0  0  0  0  0  0  0  0
  1  2  1  0
  2  3  1  0
  3  4  2  0
  4  5  1  0
  5  6  1  0
  6  7  2  0
  6  8  1  0
  8  9  1  0
  9 10  1  0
 10 11  2  0
 11 12  1  0
 12 13  1  0
 13 14  1  0
 14 15  1  0
 15 16  1  0
 16 17  1  0
 17 18  1  0
 17 19  1  0
 19 20  1  0
 12 21  2  0
 21 22  1  0
 22 23  1  0
 22 24  1  0
 22 25  1  0
 21 26  1  0
  5 27  2  0
 27 28  1  0
 28 29  1  0
 29 30  3  0
 30 31  1  0
 31 32  2  0
 32 33  1  0
 33 34  2  0
 34 35  1  0
 35 36  2  0
 36 37  1  0
 37 38  2  0
 38 39  1  0
 28  2  2  0
 39 31  1  0
 26  9  2  0
 39 34  1  0
 20 14  1  0
  1 40  1  0
  1 41  1  0
  1 42  1  0
  3 43  1  0
  4 44  1  0
  8 45  1  0
 10 46  1  0
 11 47  1  0
 13 48  1  0
 13 49  1  0
 15 50  1  0
 15 51  1  0
 16 52  1  0
 16 53  1  0
 18 54  1  0
 18 55  1  0
 18 56  1  0
 19 57  1  0
 19 58  1  0
 20 59  1  0
 20 60  1  0
 26 61  1  0
 27 62  1  0
 32 63  1  0
 35 64  1  0
 36 65  1  0
 37 66  1  0
M  END
>  <meeko>  (3) 
{"is_sidechain": false}

>  <vina_affinity_kcal_mol>  (3) 
-11.196

>  <pose_rank>  (3) 
3

$$$$

     RDKit          3D

 66 70  0  0  0  0  0  0  0  0999 V2000
  -36.5970  158.7510    5.7840 C   0  0  0  0  0  0  0  0  0  0  0  0
  -36.7430  157.2540    5.8180 C   0  0  0  0  0  0  0  0  0  0  0  0
  -36.2710  156.5400    6.9310 C   0  0  0  0  0  0  0  0  0  0  0  0
  -36.3970  155.1510    6.9900 C   0  0  0  0  0  0  0  0  0  0  0  0
  -36.9890  154.4520    5.9340 C   0  0  0  0  0  0  0  0  0  0  0  0
  -37.1000  152.9700    6.0340 C   0  0  0  0  0  0  0  0  0  0  0  0
  -36.7010  152.4260    7.0560 O   0  0  0  0  0  0  0  0  0  0  0  0
  -37.6200  152.3470    4.9130 N   0  0  0  0  0  0  0  0  0  0  0  0
  -37.8730  150.9710    4.7360 C   0  0  0  0  0  0  0  0  0  0  0  0
  -36.7770  150.1090    4.8000 C   0  0  0  0  0  0  0  0  0  0  0  0
  -36.9400  148.7340    4.6240 C   0  0  0  0  0  0  0  0  0  0  0  0
  -38.2080  148.1830    4.3780 C   0  0  0  0  0  0  0  0  0  0  0  0
  -38.3230  146.6830    4.1740 C   0  0  0  0  0  0  0  0  0  0  0  0
  -37.4480  146.1970    3.1060 N   0  0  0  0  0  0  0  0  0  0  0  0
  -37.9190  146.6210    1.7810 C   0  0  0  0  0  0  0  0  0  0  0  0
  -36.9380  146.2260    0.6440 C   0  0  0  0  0  0  0  0  0  0  0  0
  -36.1980  144.9580    0.8220 N   0  0  0  0  0  0  0  0  0  0  0  0
  -34.8340  145.2150    1.2890 C   0  0  0  0  0  0  0  0  0  0  0  0
  -36.9160  144.0870    1.7700 C   0  0  0  0  0  0  0  0  0  0  0  0
  -37.2650  144.7300    3.1400 C   0  0  0  0  0  0  0  0  0  0  0  0
  -39.3290  149.0420    4.3200 C   0  0  0  0  0  0  0  0  0  0  0  0
  -40.7340  148.5420    4.0410 C   0  0  0  0  0  0  0  0  0  0  0  0
  -41.6380  149.5610    3.9240 F   0  0  0  0  0  0  0  0  0  0  0  0
  -41.2470  147.7450    5.0210 F   0  0  0  0  0  0  0  0  0  0  0  0
  -40.8350  147.8430    2.8770 F   0  0  0  0  0  0  0  0  0  0  0  0
  -39.1360  150.4320    4.4900 C   0  0  0  0  0  0  0  0  0  0  0  0
  -37.4860  155.1550    4.8300 C   0  0  0  0  0  0  0  0  0  0  0  0
  -37.3590  156.5500    4.7690 C   0  0  0  0  0  0  0  0  0  0  0  0
  -37.8770  157.2240    3.6160 C   0  0  0  0  0  0  0  0  0  0  0  0
  -38.3170  157.7730    2.6430 C   0  0  0  0  0  0  0  0  0  0  0  0
  -38.8470  158.4260    1.4990 C   0  0  0  0  0  0  0  0  0  0  0  0
  -38.2400  158.6510    0.2830 C   0  0  0  0  0  0  0  0  0  0  0  0
  -39.0760  159.3210   -0.5760 N   0  0  0  0  0  0  0  0  0  0  0  0
  -40.1860  159.5090    0.1060 C   0  0  0  0  0  0  0  0  0  0  0  0
  -41.3970  160.1440   -0.2520 C   0  0  0  0  0  0  0  0  0  0  0  0
  -42.3940  160.2040    0.6390 C   0  0  0  0  0  0  0  0  0  0  0  0
  -42.1570  159.5860    1.9650 C   0  0  0  0  0  0  0  0  0  0  0  0
  -41.0740  158.9900    2.3530 N   0  0  0  0  0  0  0  0  0  0  0  0
  -40.1010  158.9750    1.3860 N   0  0  0  0  0  0  0  0  0  0  0  0
  -36.5591  159.1392    6.8125 H   0  0  0  0  0  0  0  0  0  0  0  0
  -35.6687  159.0170    5.2573 H   0  0  0  0  0  0  0  0  0  0  0  0
  -37.4565  159.1914    5.2573 H   0  0  0  0  0  0  0  0  0  0  0  0
  -35.7976  157.0801    7.7642 H   0  0  0  0  0  0  0  0  0  0  0  0
  -36.0290  154.6044    7.8708 H   0  0  0  0  0  0  0  0  0  0  0  0
  -37.7780  152.9290    4.0990 H   0  0  0  0  0  0  0  0  0  0  0  0
  -35.7738  150.5178    4.9912 H   0  0  0  0  0  0  0  0  0  0  0  0
  -36.0628  148.0726    4.6788 H   0  0  0  0  0  0  0  0  0  0  0  0
  -38.0505  146.1769    5.1119 H   0  0  0  0  0  0  0  0  0  0  0  0
  -39.3609  146.4623    3.8841 H   0  0  0  0  0  0  0  0  0  0  0  0
  -38.8931  146.1489    1.5857 H   0  0  0  0  0  0  0  0  0  0  0  0
  -37.9945  147.7184    1.7897 H   0  0  0  0  0  0  0  0  0  0  0  0
  -37.5195  146.1459   -0.2863 H   0  0  0  0  0  0  0  0  0  0  0  0
  -36.1695  147.0130    0.6360 H   0  0  0  0  0  0  0  0  0  0  0  0
  -34.8175  145.2181    2.3889 H   0  0  0  0  0  0  0  0  0  0  0  0
  -34.1637  144.4273    0.9145 H   0  0  0  0  0  0  0  0  0  0  0  0
  -34.4963  146.1926    0.9145 H   0  0  0  0  0  0  0  0  0  0  0  0
  -37.8566  143.7722    1.2945 H   0  0  0  0  0  0  0  0  0  0  0  0
  -36.2307  143.2561    1.9935 H   0  0  0  0  0  0  0  0  0  0  0  0
  -38.1991  144.2766    3.5031 H   0  0  0  0  0  0  0  0  0  0  0  0
  -36.4059  144.5396    3.8001 H   0  0  0  0  0  0  0  0  0  0  0  0
  -40.0034  151.1055    4.4267 H   0  0  0  0  0  0  0  0  0  0  0  0
  -37.9770  154.6120    4.0090 H   0  0  0  0  0  0  0  0  0  0  0  0
  -37.2168  158.3345    0.0323 H   0  0  0  0  0  0  0  0  0  0  0  0
  -41.5188  160.5844   -1.2526 H   0  0  0  0  0  0  0  0  0  0  0  0
  -43.3498  160.6918    0.3971 H   0  0  0  0  0  0  0  0  0  0  0  0
  -42.9816  159.6385    2.6911 H   0  0  0  0  0  0  0  0  0  0  0  0
  1  2  1  0
  2  3  1  0
  3  4  2  0
  4  5  1  0
  5  6  1  0
  6  7  2  0
  6  8  1  0
  8  9  1  0
  9 10  1  0
 10 11  2  0
 11 12  1  0
 12 13  1  0
 13 14  1  0
 14 15  1  0
 15 16  1  0
 16 17  1  0
 17 18  1  0
 17 19  1  0
 19 20  1  0
 12 21  2  0
 21 22  1  0
 22 23  1  0
 22 24  1  0
 22 25  1  0
 21 26  1  0
  5 27  2  0
 27 28  1  0
 28 29  1  0
 29 30  3  0
 30 31  1  0
 31 32  2  0
 32 33  1  0
 33 34  2  0
 34 35  1  0
 35 36  2  0
 36 37  1  0
 37 38  2  0
 38 39  1  0
 28  2  2  0
 39 31  1  0
 26  9  2  0
 39 34  1  0
 20 14  1  0
  1 40  1  0
  1 41  1  0
  1 42  1  0
  3 43  1  0
  4 44  1  0
  8 45  1  0
 10 46  1  0
 11 47  1  0
 13 48  1  0
 13 49  1  0
 15 50  1  0
 15 51  1  0
 16 52  1  0
 16 53  1  0
 18 54  1  0
 18 55  1  0
 18 56  1  0
 19 57  1  0
 19 58  1  0
 20 59  1  0
 20 60  1  0
 26 61  1  0
 27 62  1  0
 32 63  1  0
 35 64  1  0
 36 65  1  0
 37 66  1  0
M  END
>  <meeko>  (4) 
{"is_sidechain": false}

>  <vina_affinity_kcal_mol>  (4) 
-10.409

>  <pose_rank>  (4) 
4

$$$$

     RDKit          3D

 66 70  0  0  0  0  0  0  0  0999 V2000
  -42.5060  161.2370   -0.9410 C   0  0  0  0  0  0  0  0  0  0  0  0
  -41.3900  160.5030   -0.2490 C   0  0  0  0  0  0  0  0  0  0  0  0
  -41.6940  159.5860    0.7700 C   0  0  0  0  0  0  0  0  0  0  0  0
  -40.6770  158.8890    1.4260 C   0  0  0  0  0  0  0  0  0  0  0  0
  -39.3400  159.1040    1.0810 C   0  0  0  0  0  0  0  0  0  0  0  0
  -38.2850  158.3450    1.8080 C   0  0  0  0  0  0  0  0  0  0  0  0
  -37.4190  157.7810    1.1510 O   0  0  0  0  0  0  0  0  0  0  0  0
  -38.4260  158.3240    3.1840 N   0  0  0  0  0  0  0  0  0  0  0  0
  -37.5660  157.7200    4.1250 C   0  0  0  0  0  0  0  0  0  0  0  0
  -37.0220  156.4810    3.7860 C   0  0  0  0  0  0  0  0  0  0  0  0
  -36.1700  155.8110    4.6670 C   0  0  0  0  0  0  0  0  0  0  0  0
  -35.8400  156.3660    5.9150 C   0  0  0  0  0  0  0  0  0  0  0  0
  -34.9260  155.5830    6.8400 C   0  0  0  0  0  0  0  0  0  0  0  0
  -35.0140  154.1390    6.6210 N   0  0  0  0  0  0  0  0  0  0  0  0
  -35.5900  153.4460    7.7810 C   0  0  0  0  0  0  0  0  0  0  0  0
  -35.8110  151.9320    7.5230 C   0  0  0  0  0  0  0  0  0  0  0  0
  -34.8290  151.2620    6.6420 N   0  0  0  0  0  0  0  0  0  0  0  0
  -35.3690  151.1060    5.2900 C   0  0  0  0  0  0  0  0  0  0  0  0
  -33.5730  152.0310    6.6160 C   0  0  0  0  0  0  0  0  0  0  0  0
  -33.7150  153.5350    6.2550 C   0  0  0  0  0  0  0  0  0  0  0  0
  -36.3750  157.6250    6.2670 C   0  0  0  0  0  0  0  0  0  0  0  0
  -36.0910  158.2950    7.5990 C   0  0  0  0  0  0  0  0  0  0  0  0
  -36.4770  159.6070    7.6170 F   0  0  0  0  0  0  0  0  0  0  0  0
  -34.7700  158.3260    7.9360 F   0  0  0  0  0  0  0  0  0  0  0  0
  -36.7470  157.7170    8.6420 F   0  0  0  0  0  0  0  0  0  0  0  0
  -37.2440  158.2780    5.3630 C   0  0  0  0  0  0  0  0  0  0  0  0
  -39.0260  159.9980    0.0500 C   0  0  0  0  0  0  0  0  0  0  0  0
  -40.0450  160.6990   -0.6080 C   0  0  0  0  0  0  0  0  0  0  0  0
  -39.6740  161.6080   -1.6520 C   0  0  0  0  0  0  0  0  0  0  0  0
  -39.3440  162.3640   -2.5240 C   0  0  0  0  0  0  0  0  0  0  0  0
  -38.9550  163.2500   -3.5630 C   0  0  0  0  0  0  0  0  0  0  0  0
  -38.8560  164.6240   -3.5260 C   0  0  0  0  0  0  0  0  0  0  0  0
  -38.4480  165.1280   -4.7380 N   0  0  0  0  0  0  0  0  0  0  0  0
  -38.3010  164.0740   -5.5130 C   0  0  0  0  0  0  0  0  0  0  0  0
  -37.9060  163.9680   -6.8650 C   0  0  0  0  0  0  0  0  0  0  0  0
  -37.8330  162.7590   -7.4340 C   0  0  0  0  0  0  0  0  0  0  0  0
  -38.1740  161.5900   -6.5890 C   0  0  0  0  0  0  0  0  0  0  0  0
  -38.5400  161.6200   -5.3470 N   0  0  0  0  0  0  0  0  0  0  0  0
  -38.5950  162.8940   -4.8400 N   0  0  0  0  0  0  0  0  0  0  0  0
  -43.1766  161.6780   -0.1888 H   0  0  0  0  0  0  0  0  0  0  0  0
  -42.0852  162.0352   -1.5701 H   0  0  0  0  0  0  0  0  0  0  0  0
  -43.0723  160.5344   -1.5701 H   0  0  0  0  0  0  0  0  0  0  0  0
  -42.7428  159.4150    1.0542 H   0  0  0  0  0  0  0  0  0  0  0  0
  -40.9294  158.1679    2.2174 H   0  0  0  0  0  0  0  0  0  0  0  0
  -39.2730  158.7290    3.5640 H   0  0  0  0  0  0  0  0  0  0  0  0
  -37.2666  156.0268    2.8145 H   0  0  0  0  0  0  0  0  0  0  0  0
  -35.7515  154.8351    4.3798 H   0  0  0  0  0  0  0  0  0  0  0  0
  -33.8884  155.9040    6.6659 H   0  0  0  0  0  0  0  0  0  0  0  0
  -35.2427  155.7850    7.8739 H   0  0  0  0  0  0  0  0  0  0  0  0
  -34.9068  153.5616    8.6353 H   0  0  0  0  0  0  0  0  0  0  0  0
  -36.5730  153.8962    7.9834 H   0  0  0  0  0  0  0  0  0  0  0  0
  -35.7900  151.4206    8.4966 H   0  0  0  0  0  0  0  0  0  0  0  0
  -36.7720  151.8645    6.9920 H   0  0  0  0  0  0  0  0  0  0  0  0
  -36.4242  150.8012    5.3496 H   0  0  0  0  0  0  0  0  0  0  0  0
  -35.2935  152.0627    4.7524 H   0  0  0  0  0  0  0  0  0  0  0  0
  -34.7950  150.3370    4.7524 H   0  0  0  0  0  0  0  0  0  0  0  0
  -33.1144  151.9641    7.6136 H   0  0  0  0  0  0  0  0  0  0  0  0
  -32.9636  151.5855    5.8159 H   0  0  0  0  0  0  0  0  0  0  0  0
  -32.9206  154.0889    6.7767 H   0  0  0  0  0  0  0  0  0  0  0  0
  -33.6404  153.5996    5.1594 H   0  0  0  0  0  0  0  0  0  0  0  0
  -37.6770  159.2498    5.6423 H   0  0  0  0  0  0  0  0  0  0  0  0
  -37.9770  160.1502   -0.2439 H   0  0  0  0  0  0  0  0  0  0  0  0
  -39.0753  165.2385   -2.6404 H   0  0  0  0  0  0  0  0  0  0  0  0
  -37.6608  164.8703   -7.4444 H   0  0  0  0  0  0  0  0  0  0  0  0
  -37.5324  162.6378   -8.4852 H   0  0  0  0  0  0  0  0  0  0  0  0
  -38.1099  160.5996   -7.0634 H   0  0  0  0  0  0  0  0  0  0  0  0
  1  2  1  0
  2  3  1  0
  3  4  2  0
  4  5  1  0
  5  6  1  0
  6  7  2  0
  6  8  1  0
  8  9  1  0
  9 10  1  0
 10 11  2  0
 11 12  1  0
 12 13  1  0
 13 14  1  0
 14 15  1  0
 15 16  1  0
 16 17  1  0
 17 18  1  0
 17 19  1  0
 19 20  1  0
 12 21  2  0
 21 22  1  0
 22 23  1  0
 22 24  1  0
 22 25  1  0
 21 26  1  0
  5 27  2  0
 27 28  1  0
 28 29  1  0
 29 30  3  0
 30 31  1  0
 31 32  2  0
 32 33  1  0
 33 34  2  0
 34 35  1  0
 35 36  2  0
 36 37  1  0
 37 38  2  0
 38 39  1  0
 28  2  2  0
 39 31  1  0
 26  9  2  0
 39 34  1  0
 20 14  1  0
  1 40  1  0
  1 41  1  0
  1 42  1  0
  3 43  1  0
  4 44  1  0
  8 45  1  0
 10 46  1  0
 11 47  1  0
 13 48  1  0
 13 49  1  0
 15 50  1  0
 15 51  1  0
 16 52  1  0
 16 53  1  0
 18 54  1  0
 18 55  1  0
 18 56  1  0
 19 57  1  0
 19 58  1  0
 20 59  1  0
 20 60  1  0
 26 61  1  0
 27 62  1  0
 32 63  1  0
 35 64  1  0
 36 65  1  0
 37 66  1  0
M  END
>  <meeko>  (5) 
{"is_sidechain": false}

>  <vina_affinity_kcal_mol>  (5) 
-10.339

>  <pose_rank>  (5) 
5

$$$$

     RDKit          3D

 66 70  0  0  0  0  0  0  0  0999 V2000
  -35.3930  158.2200    4.7440 C   0  0  0  0  0  0  0  0  0  0  0  0
  -35.9460  156.8240    4.8330 C   0  0  0  0  0  0  0  0  0  0  0  0
  -35.3440  155.8970    5.6980 C   0  0  0  0  0  0  0  0  0  0  0  0
  -35.8390  154.5950    5.8020 C   0  0  0  0  0  0  0  0  0  0  0  0
  -36.9390  154.1970    5.0360 C   0  0  0  0  0  0  0  0  0  0  0  0
  -37.4340  152.7990    5.1720 C   0  0  0  0  0  0  0  0  0  0  0  0
  -37.0200  152.1260    6.1090 O   0  0  0  0  0  0  0  0  0  0  0  0
  -38.2990  152.3870    4.1750 N   0  0  0  0  0  0  0  0  0  0  0  0
  -38.9490  151.1400    4.0640 C   0  0  0  0  0  0  0  0  0  0  0  0
  -39.3000  150.7160    2.7810 C   0  0  0  0  0  0  0  0  0  0  0  0
  -39.9560  149.5000    2.5860 C   0  0  0  0  0  0  0  0  0  0  0  0
  -40.2800  148.6710    3.6740 C   0  0  0  0  0  0  0  0  0  0  0  0
  -41.0120  147.3690    3.4040 C   0  0  0  0  0  0  0  0  0  0  0  0
  -40.5260  146.6950    2.2000 N   0  0  0  0  0  0  0  0  0  0  0  0
  -41.5970  145.9560    1.5190 C   0  0  0  0  0  0  0  0  0  0  0  0
  -41.1340  145.3390    0.1720 C   0  0  0  0  0  0  0  0  0  0  0  0
  -39.7280  144.8840    0.1030 N   0  0  0  0  0  0  0  0  0  0  0  0
  -38.8970  145.8720   -0.5870 C   0  0  0  0  0  0  0  0  0  0  0  0
  -39.2160  144.6320    1.4610 C   0  0  0  0  0  0  0  0  0  0  0  0
  -39.3770  145.8030    2.4670 C   0  0  0  0  0  0  0  0  0  0  0  0
  -39.9220  149.0820    4.9780 C   0  0  0  0  0  0  0  0  0  0  0  0
  -40.2460  148.2650    6.2150 C   0  0  0  0  0  0  0  0  0  0  0  0
  -39.8690  148.8920    7.3700 F   0  0  0  0  0  0  0  0  0  0  0  0
  -39.6150  147.0570    6.2650 F   0  0  0  0  0  0  0  0  0  0  0  0
  -41.5760  148.0170    6.3620 F   0  0  0  0  0  0  0  0  0  0  0  0
  -39.2690  150.3240    5.1500 C   0  0  0  0  0  0  0  0  0  0  0  0
  -37.5630  155.1200    4.1880 C   0  0  0  0  0  0  0  0  0  0  0  0
  -37.0660  156.4260    4.0820 C   0  0  0  0  0  0  0  0  0  0  0  0
  -37.7340  157.3320    3.1960 C   0  0  0  0  0  0  0  0  0  0  0  0
  -38.3070  158.0780    2.4490 C   0  0  0  0  0  0  0  0  0  0  0  0
  -38.9790  158.9540    1.5560 C   0  0  0  0  0  0  0  0  0  0  0  0
  -39.8690  159.9620    1.8540 C   0  0  0  0  0  0  0  0  0  0  0  0
  -40.3120  160.5890    0.7140 N   0  0  0  0  0  0  0  0  0  0  0  0
  -39.7030  159.9690   -0.2740 C   0  0  0  0  0  0  0  0  0  0  0  0
  -39.7670  160.1700   -1.6710 C   0  0  0  0  0  0  0  0  0  0  0  0
  -39.0360  159.3930   -2.4800 C   0  0  0  0  0  0  0  0  0  0  0  0
  -38.1890  158.3570   -1.8400 C   0  0  0  0  0  0  0  0  0  0  0  0
  -38.0860  158.1250   -0.5700 N   0  0  0  0  0  0  0  0  0  0  0  0
  -38.8690  158.9590    0.1870 N   0  0  0  0  0  0  0  0  0  0  0  0
  -35.2356  158.6173    5.7576 H   0  0  0  0  0  0  0  0  0  0  0  0
  -34.4345  158.2010    4.2047 H   0  0  0  0  0  0  0  0  0  0  0  0
  -36.1045  158.8626    4.2047 H   0  0  0  0  0  0  0  0  0  0  0  0
  -34.4740  156.1987    6.2998 H   0  0  0  0  0  0  0  0  0  0  0  0
  -35.3619  153.8804    6.4888 H   0  0  0  0  0  0  0  0  0  0  0  0
  -38.4370  153.0210    3.3980 H   0  0  0  0  0  0  0  0  0  0  0  0
  -39.0566  151.3477    1.9140 H   0  0  0  0  0  0  0  0  0  0  0  0
  -40.2234  149.1856    1.5664 H   0  0  0  0  0  0  0  0  0  0  0  0
  -40.8708  146.6993    4.2651 H   0  0  0  0  0  0  0  0  0  0  0  0
  -42.0745  147.6077    3.2489 H   0  0  0  0  0  0  0  0  0  0  0  0
  -41.9398  145.1451    2.1785 H   0  0  0  0  0  0  0  0  0  0  0  0
  -42.4052  146.6689    1.2984 H   0  0  0  0  0  0  0  0  0  0  0  0
  -41.7768  144.4710   -0.0365 H   0  0  0  0  0  0  0  0  0  0  0  0
  -41.2129  146.1531   -0.5635 H   0  0  0  0  0  0  0  0  0  0  0  0
  -38.3742  146.4936    0.1548 H   0  0  0  0  0  0  0  0  0  0  0  0
  -38.1588  145.3543   -1.2172 H   0  0  0  0  0  0  0  0  0  0  0  0
  -39.5335  146.5105   -1.2172 H   0  0  0  0  0  0  0  0  0  0  0  0
  -39.7502  143.7607    1.8677 H   0  0  0  0  0  0  0  0  0  0  0  0
  -38.1325  144.4777    1.3500 H   0  0  0  0  0  0  0  0  0  0  0  0
  -39.5018  145.3756    3.4728 H   0  0  0  0  0  0  0  0  0  0  0  0
  -38.4737  146.4229    2.3685 H   0  0  0  0  0  0  0  0  0  0  0  0
  -39.0065  150.6556    6.1654 H   0  0  0  0  0  0  0  0  0  0  0  0
  -38.4452  154.8194    3.6038 H   0  0  0  0  0  0  0  0  0  0  0  0
  -40.1845  160.2306    2.8730 H   0  0  0  0  0  0  0  0  0  0  0  0
  -40.4111  160.9572   -2.0899 H   0  0  0  0  0  0  0  0  0  0  0  0
  -39.0624  159.5176   -3.5726 H   0  0  0  0  0  0  0  0  0  0  0  0
  -37.5893  157.7234   -2.5100 H   0  0  0  0  0  0  0  0  0  0  0  0
  1  2  1  0
  2  3  1  0
  3  4  2  0
  4  5  1  0
  5  6  1  0
  6  7  2  0
  6  8  1  0
  8  9  1  0
  9 10  1  0
 10 11  2  0
 11 12  1  0
 12 13  1  0
 13 14  1  0
 14 15  1  0
 15 16  1  0
 16 17  1  0
 17 18  1  0
 17 19  1  0
 19 20  1  0
 12 21  2  0
 21 22  1  0
 22 23  1  0
 22 24  1  0
 22 25  1  0
 21 26  1  0
  5 27  2  0
 27 28  1  0
 28 29  1  0
 29 30  3  0
 30 31  1  0
 31 32  2  0
 32 33  1  0
 33 34  2  0
 34 35  1  0
 35 36  2  0
 36 37  1  0
 37 38  2  0
 38 39  1  0
 28  2  2  0
 39 31  1  0
 26  9  2  0
 39 34  1  0
 20 14  1  0
  1 40  1  0
  1 41  1  0
  1 42  1  0
  3 43  1  0
  4 44  1  0
  8 45  1  0
 10 46  1  0
 11 47  1  0
 13 48  1  0
 13 49  1  0
 15 50  1  0
 15 51  1  0
 16 52  1  0
 16 53  1  0
 18 54  1  0
 18 55  1  0
 18 56  1  0
 19 57  1  0
 19 58  1  0
 20 59  1  0
 20 60  1  0
 26 61  1  0
 27 62  1  0
 32 63  1  0
 35 64  1  0
 36 65  1  0
 37 66  1  0
M  END
>  <meeko>  (6) 
{"is_sidechain": false}

>  <vina_affinity_kcal_mol>  (6) 
-10.241

>  <pose_rank>  (6) 
6

$$$$

     RDKit          3D

 66 70  0  0  0  0  0  0  0  0999 V2000
  -36.5850  158.8130    5.6940 C   0  0  0  0  0  0  0  0  0  0  0  0
  -36.7550  157.3200    5.7720 C   0  0  0  0  0  0  0  0  0  0  0  0
  -36.2830  156.6290    6.8980 C   0  0  0  0  0  0  0  0  0  0  0  0
  -36.4310  155.2440    6.9970 C   0  0  0  0  0  0  0  0  0  0  0  0
  -37.0460  154.5270    5.9670 C   0  0  0  0  0  0  0  0  0  0  0  0
  -37.1800  153.0500    6.1080 C   0  0  0  0  0  0  0  0  0  0  0  0
  -36.7490  152.5240    7.1270 O   0  0  0  0  0  0  0  0  0  0  0  0
  -37.7560  152.4100    5.0250 N   0  0  0  0  0  0  0  0  0  0  0  0
  -38.0410  151.0350    4.8930 C   0  0  0  0  0  0  0  0  0  0  0  0
  -36.9860  150.1440    5.1010 C   0  0  0  0  0  0  0  0  0  0  0  0
  -37.1820  148.7670    4.9780 C   0  0  0  0  0  0  0  0  0  0  0  0
  -38.4420  148.2440    4.6430 C   0  0  0  0  0  0  0  0  0  0  0  0
  -38.5910  146.7400    4.5030 C   0  0  0  0  0  0  0  0  0  0  0  0
  -39.0700  146.1100    5.7340 N   0  0  0  0  0  0  0  0  0  0  0  0
  -37.9670  145.5350    6.5160 C   0  0  0  0  0  0  0  0  0  0  0  0
  -38.4350  144.9740    7.8860 C   0  0  0  0  0  0  0  0  0  0  0  0
  -39.7920  144.3860    7.9300 N   0  0  0  0  0  0  0  0  0  0  0  0
  -40.7490  145.3330    8.5050 C   0  0  0  0  0  0  0  0  0  0  0  0
  -40.2070  143.9840    6.5750 C   0  0  0  0  0  0  0  0  0  0  0  0
  -40.1110  145.0890    5.4880 C   0  0  0  0  0  0  0  0  0  0  0  0
  -39.5210  149.1340    4.4400 C   0  0  0  0  0  0  0  0  0  0  0  0
  -40.9130  148.6640    4.0570 C   0  0  0  0  0  0  0  0  0  0  0  0
  -41.5500  148.0260    5.0850 F   0  0  0  0  0  0  0  0  0  0  0  0
  -40.9350  147.7630    3.0340 F   0  0  0  0  0  0  0  0  0  0  0  0
  -41.7440  149.6810    3.7000 F   0  0  0  0  0  0  0  0  0  0  0  0
  -39.2950  150.5230    4.5590 C   0  0  0  0  0  0  0  0  0  0  0  0
  -37.5420  155.2080    4.8490 C   0  0  0  0  0  0  0  0  0  0  0  0
  -37.3930  156.5980    4.7480 C   0  0  0  0  0  0  0  0  0  0  0  0
  -37.9120  157.2490    3.5820 C   0  0  0  0  0  0  0  0  0  0  0  0
  -38.3530  157.7780    2.5990 C   0  0  0  0  0  0  0  0  0  0  0  0
  -38.8840  158.4080    1.4430 C   0  0  0  0  0  0  0  0  0  0  0  0
  -38.2870  158.5880    0.2140 C   0  0  0  0  0  0  0  0  0  0  0  0
  -39.1210  159.2480   -0.6540 N   0  0  0  0  0  0  0  0  0  0  0  0
  -40.2200  159.4760    0.0350 C   0  0  0  0  0  0  0  0  0  0  0  0
  -41.4230  160.1220   -0.3290 C   0  0  0  0  0  0  0  0  0  0  0  0
  -42.4080  160.2260    0.5710 C   0  0  0  0  0  0  0  0  0  0  0  0
  -42.1670  159.6410    1.9120 C   0  0  0  0  0  0  0  0  0  0  0  0
  -41.0910  159.0370    2.3050 N   0  0  0  0  0  0  0  0  0  0  0  0
  -40.1290  158.9770    1.3280 N   0  0  0  0  0  0  0  0  0  0  0  0
  -36.5375  159.2302    6.7107 H   0  0  0  0  0  0  0  0  0  0  0  0
  -35.6542  159.0485    5.1571 H   0  0  0  0  0  0  0  0  0  0  0  0
  -37.4390  159.2517    5.1571 H   0  0  0  0  0  0  0  0  0  0  0  0
  -35.7915  157.1837    7.7109 H   0  0  0  0  0  0  0  0  0  0  0  0
  -36.0623  154.7156    7.8886 H   0  0  0  0  0  0  0  0  0  0  0  0
  -37.9360  152.9750    4.2040 H   0  0  0  0  0  0  0  0  0  0  0  0
  -35.9905  150.5309    5.3644 H   0  0  0  0  0  0  0  0  0  0  0  0
  -36.3378  148.0820    5.1458 H   0  0  0  0  0  0  0  0  0  0  0  0
  -39.3085  146.5297    3.6962 H   0  0  0  0  0  0  0  0  0  0  0  0
  -37.5979  146.3241    4.2778 H   0  0  0  0  0  0  0  0  0  0  0  0
  -37.5135  144.7171    5.9368 H   0  0  0  0  0  0  0  0  0  0  0  0
  -37.2447  146.3404    6.7151 H   0  0  0  0  0  0  0  0  0  0  0  0
  -37.7222  144.1925    8.1882 H   0  0  0  0  0  0  0  0  0  0  0  0
  -38.4725  145.8433    8.5590 H   0  0  0  0  0  0  0  0  0  0  0  0
  -40.6991  145.2837    9.6028 H   0  0  0  0  0  0  0  0  0  0  0  0
  -40.5017  146.3518    8.1721 H   0  0  0  0  0  0  0  0  0  0  0  0
  -41.7652  145.0750    8.1721 H   0  0  0  0  0  0  0  0  0  0  0  0
  -39.5696  143.1442    6.2611 H   0  0  0  0  0  0  0  0  0  0  0  0
  -41.2742  143.7284    6.6507 H   0  0  0  0  0  0  0  0  0  0  0  0
  -39.8942  144.6040    4.5248 H   0  0  0  0  0  0  0  0  0  0  0  0
  -41.0746  145.6194    5.4987 H   0  0  0  0  0  0  0  0  0  0  0  0
  -40.1288  151.2187    4.3839 H   0  0  0  0  0  0  0  0  0  0  0  0
  -38.0499  154.6509    4.0479 H   0  0  0  0  0  0  0  0  0  0  0  0
  -37.2724  158.2466   -0.0390 H   0  0  0  0  0  0  0  0  0  0  0  0
  -41.5484  160.5348   -1.3409 H   0  0  0  0  0  0  0  0  0  0  0  0
  -43.3573  160.7249    0.3260 H   0  0  0  0  0  0  0  0  0  0  0  0
  -42.9824  159.7287    2.6451 H   0  0  0  0  0  0  0  0  0  0  0  0
  1  2  1  0
  2  3  1  0
  3  4  2  0
  4  5  1  0
  5  6  1  0
  6  7  2  0
  6  8  1  0
  8  9  1  0
  9 10  1  0
 10 11  2  0
 11 12  1  0
 12 13  1  0
 13 14  1  0
 14 15  1  0
 15 16  1  0
 16 17  1  0
 17 18  1  0
 17 19  1  0
 19 20  1  0
 12 21  2  0
 21 22  1  0
 22 23  1  0
 22 24  1  0
 22 25  1  0
 21 26  1  0
  5 27  2  0
 27 28  1  0
 28 29  1  0
 29 30  3  0
 30 31  1  0
 31 32  2  0
 32 33  1  0
 33 34  2  0
 34 35  1  0
 35 36  2  0
 36 37  1  0
 37 38  2  0
 38 39  1  0
 28  2  2  0
 39 31  1  0
 26  9  2  0
 39 34  1  0
 20 14  1  0
  1 40  1  0
  1 41  1  0
  1 42  1  0
  3 43  1  0
  4 44  1  0
  8 45  1  0
 10 46  1  0
 11 47  1  0
 13 48  1  0
 13 49  1  0
 15 50  1  0
 15 51  1  0
 16 52  1  0
 16 53  1  0
 18 54  1  0
 18 55  1  0
 18 56  1  0
 19 57  1  0
 19 58  1  0
 20 59  1  0
 20 60  1  0
 26 61  1  0
 27 62  1  0
 32 63  1  0
 35 64  1  0
 36 65  1  0
 37 66  1  0
M  END
>  <meeko>  (7) 
{"is_sidechain": false}

>  <vina_affinity_kcal_mol>  (7) 
-10.237

>  <pose_rank>  (7) 
7

$$$$

     RDKit          3D

 66 70  0  0  0  0  0  0  0  0999 V2000
  -41.7750  159.1640    2.1340 C   0  0  0  0  0  0  0  0  0  0  0  0
  -40.9300  159.5180    0.9400 C   0  0  0  0  0  0  0  0  0  0  0  0
  -41.4820  160.2950   -0.0900 C   0  0  0  0  0  0  0  0  0  0  0  0
  -40.7180  160.6400   -1.2070 C   0  0  0  0  0  0  0  0  0  0  0  0
  -39.3940  160.2060   -1.3160 C   0  0  0  0  0  0  0  0  0  0  0  0
  -38.6150  160.5920   -2.5260 C   0  0  0  0  0  0  0  0  0  0  0  0
  -37.5840  159.9790   -2.7720 O   0  0  0  0  0  0  0  0  0  0  0  0
  -39.1350  161.6580   -3.2380 N   0  0  0  0  0  0  0  0  0  0  0  0
  -38.6370  162.2150   -4.4350 C   0  0  0  0  0  0  0  0  0  0  0  0
  -39.0190  163.5230   -4.7350 C   0  0  0  0  0  0  0  0  0  0  0  0
  -38.5780  164.1430   -5.9070 C   0  0  0  0  0  0  0  0  0  0  0  0
  -37.7420  163.4680   -6.8110 C   0  0  0  0  0  0  0  0  0  0  0  0
  -37.3120  164.1840   -8.0780 C   0  0  0  0  0  0  0  0  0  0  0  0
  -37.4640  163.3500   -9.2700 N   0  0  0  0  0  0  0  0  0  0  0  0
  -36.7270  163.8980  -10.4160 C   0  0  0  0  0  0  0  0  0  0  0  0
  -36.7700  162.9640  -11.6560 C   0  0  0  0  0  0  0  0  0  0  0  0
  -38.0080  162.1780  -11.8480 N   0  0  0  0  0  0  0  0  0  0  0  0
  -37.8250  160.8010  -11.3850 C   0  0  0  0  0  0  0  0  0  0  0  0
  -39.1250  162.8220  -11.1350 C   0  0  0  0  0  0  0  0  0  0  0  0
  -38.8790  163.1210   -9.6320 C   0  0  0  0  0  0  0  0  0  0  0  0
  -37.3390  162.1460   -6.5150 C   0  0  0  0  0  0  0  0  0  0  0  0
  -36.4530  161.3300   -7.4390 C   0  0  0  0  0  0  0  0  0  0  0  0
  -35.6200  160.4880   -6.7560 F   0  0  0  0  0  0  0  0  0  0  0  0
  -35.6180  162.0790   -8.2130 F   0  0  0  0  0  0  0  0  0  0  0  0
  -37.1550  160.5270   -8.2840 F   0  0  0  0  0  0  0  0  0  0  0  0
  -37.8080  161.5360   -5.3290 C   0  0  0  0  0  0  0  0  0  0  0  0
  -38.8250  159.4510   -0.2840 C   0  0  0  0  0  0  0  0  0  0  0  0
  -39.5910  159.1030    0.8370 C   0  0  0  0  0  0  0  0  0  0  0  0
  -38.9660  158.3240    1.8650 C   0  0  0  0  0  0  0  0  0  0  0  0
  -38.4270  157.6710    2.7160 C   0  0  0  0  0  0  0  0  0  0  0  0
  -37.7880  156.9080    3.7290 C   0  0  0  0  0  0  0  0  0  0  0  0
  -37.6080  155.5440    3.7900 C   0  0  0  0  0  0  0  0  0  0  0  0
  -36.9440  155.1790    4.9360 N   0  0  0  0  0  0  0  0  0  0  0  0
  -36.7210  156.3070    5.5750 C   0  0  0  0  0  0  0  0  0  0  0  0
  -36.0820  156.5610    6.8100 C   0  0  0  0  0  0  0  0  0  0  0  0
  -35.9810  157.8220    7.2490 C   0  0  0  0  0  0  0  0  0  0  0  0
  -36.5540  158.8870    6.3910 C   0  0  0  0  0  0  0  0  0  0  0  0
  -37.1480  158.7200    5.2520 N   0  0  0  0  0  0  0  0  0  0  0  0
  -37.2150  157.4020    4.8760 N   0  0  0  0  0  0  0  0  0  0  0  0
  -41.2220  159.3957    3.0562 H   0  0  0  0  0  0  0  0  0  0  0  0
  -42.7074  159.7472    2.1092 H   0  0  0  0  0  0  0  0  0  0  0  0
  -42.0133  158.0904    2.1092 H   0  0  0  0  0  0  0  0  0  0  0  0
  -42.5255  160.6353   -0.0169 H   0  0  0  0  0  0  0  0  0  0  0  0
  -41.1601  161.2558   -2.0041 H   0  0  0  0  0  0  0  0  0  0  0  0
  -39.9240  162.1420   -2.8270 H   0  0  0  0  0  0  0  0  0  0  0  0
  -39.6738  164.0716   -4.0420 H   0  0  0  0  0  0  0  0  0  0  0  0
  -38.8903  165.1750   -6.1247 H   0  0  0  0  0  0  0  0  0  0  0  0
  -37.9271  165.0879   -8.1988 H   0  0  0  0  0  0  0  0  0  0  0  0
  -36.2452  164.4323   -7.9768 H   0  0  0  0  0  0  0  0  0  0  0  0
  -37.1704  164.8669  -10.6893 H   0  0  0  0  0  0  0  0  0  0  0  0
  -35.6743  164.0038  -10.1151 H   0  0  0  0  0  0  0  0  0  0  0  0
  -36.6290  163.5890  -12.5501 H   0  0  0  0  0  0  0  0  0  0  0  0
  -35.9766  162.2208  -11.4881 H   0  0  0  0  0  0  0  0  0  0  0  0
  -37.8224  160.7813  -10.2852 H   0  0  0  0  0  0  0  0  0  0  0  0
  -38.6479  160.1753  -11.7610 H   0  0  0  0  0  0  0  0  0  0  0  0
  -36.8673  160.4120  -11.7610 H   0  0  0  0  0  0  0  0  0  0  0  0
  -39.3427  163.7756  -11.6384 H   0  0  0  0  0  0  0  0  0  0  0  0
  -39.9562  162.1022  -11.1661 H   0  0  0  0  0  0  0  0  0  0  0  0
  -39.4511  164.0215   -9.3639 H   0  0  0  0  0  0  0  0  0  0  0  0
  -39.1989  162.2243   -9.0810 H   0  0  0  0  0  0  0  0  0  0  0  0
  -37.5121  160.5004   -5.1053 H   0  0  0  0  0  0  0  0  0  0  0  0
  -37.7751  159.1303   -0.3528 H   0  0  0  0  0  0  0  0  0  0  0  0
  -37.9517  154.8376    3.0201 H   0  0  0  0  0  0  0  0  0  0  0  0
  -35.6719  155.7312    7.4044 H   0  0  0  0  0  0  0  0  0  0  0  0
  -35.4933  158.0580    8.2063 H   0  0  0  0  0  0  0  0  0  0  0  0
  -36.4660  159.9203    6.7577 H   0  0  0  0  0  0  0  0  0  0  0  0
  1  2  1  0
  2  3  1  0
  3  4  2  0
  4  5  1  0
  5  6  1  0
  6  7  2  0
  6  8  1  0
  8  9  1  0
  9 10  1  0
 10 11  2  0
 11 12  1  0
 12 13  1  0
 13 14  1  0
 14 15  1  0
 15 16  1  0
 16 17  1  0
 17 18  1  0
 17 19  1  0
 19 20  1  0
 12 21  2  0
 21 22  1  0
 22 23  1  0
 22 24  1  0
 22 25  1  0
 21 26  1  0
  5 27  2  0
 27 28  1  0
 28 29  1  0
 29 30  3  0
 30 31  1  0
 31 32  2  0
 32 33  1  0
 33 34  2  0
 34 35  1  0
 35 36  2  0
 36 37  1  0
 37 38  2  0
 38 39  1  0
 28  2  2  0
 39 31  1  0
 26  9  2  0
 39 34  1  0
 20 14  1  0
  1 40  1  0
  1 41  1  0
  1 42  1  0
  3 43  1  0
  4 44  1  0
  8 45  1  0
 10 46  1  0
 11 47  1  0
 13 48  1  0
 13 49  1  0
 15 50  1  0
 15 51  1  0
 16 52  1  0
 16 53  1  0
 18 54  1  0
 18 55  1  0
 18 56  1  0
 19 57  1  0
 19 58  1  0
 20 59  1  0
 20 60  1  0
 26 61  1  0
 27 62  1  0
 32 63  1  0
 35 64  1  0
 36 65  1  0
 37 66  1  0
M  END
>  <meeko>  (8) 
{"is_sidechain": false}

>  <vina_affinity_kcal_mol>  (8) 
-10.216

>  <pose_rank>  (8) 
8

$$$$

     RDKit          3D

 66 70  0  0  0  0  0  0  0  0999 V2000
  -36.4510  158.2260    5.7660 C   0  0  0  0  0  0  0  0  0  0  0  0
  -36.7390  156.7520    5.6740 C   0  0  0  0  0  0  0  0  0  0  0  0
  -36.3100  155.9000    6.7040 C   0  0  0  0  0  0  0  0  0  0  0  0
  -36.5670  154.5280    6.6450 C   0  0  0  0  0  0  0  0  0  0  0  0
  -37.2490  153.9860    5.5520 C   0  0  0  0  0  0  0  0  0  0  0  0
  -37.4980  152.5180    5.5250 C   0  0  0  0  0  0  0  0  0  0  0  0
  -37.0050  151.8300    6.4110 O   0  0  0  0  0  0  0  0  0  0  0  0
  -38.2470  152.0730    4.4500 N   0  0  0  0  0  0  0  0  0  0  0  0
  -38.6680  150.7530    4.1850 C   0  0  0  0  0  0  0  0  0  0  0  0
  -40.0040  150.4460    4.4490 C   0  0  0  0  0  0  0  0  0  0  0  0
  -40.4970  149.1590    4.2250 C   0  0  0  0  0  0  0  0  0  0  0  0
  -39.6640  148.1420    3.7300 C   0  0  0  0  0  0  0  0  0  0  0  0
  -40.2500  146.7570    3.5250 C   0  0  0  0  0  0  0  0  0  0  0  0
  -40.8230  146.2070    4.7540 N   0  0  0  0  0  0  0  0  0  0  0  0
  -39.7970  145.9860    5.7820 C   0  0  0  0  0  0  0  0  0  0  0  0
  -40.3990  145.5230    7.1360 C   0  0  0  0  0  0  0  0  0  0  0  0
  -41.6060  144.6710    7.0650 N   0  0  0  0  0  0  0  0  0  0  0  0
  -42.8130  145.4610    7.3190 C   0  0  0  0  0  0  0  0  0  0  0  0
  -41.6810  144.0170    5.7470 C   0  0  0  0  0  0  0  0  0  0  0  0
  -41.5920  144.9660    4.5210 C   0  0  0  0  0  0  0  0  0  0  0  0
  -38.3110  148.4420    3.4490 C   0  0  0  0  0  0  0  0  0  0  0  0
  -37.3310  147.4050    2.9300 C   0  0  0  0  0  0  0  0  0  0  0  0
  -37.7650  146.8040    1.7810 F   0  0  0  0  0  0  0  0  0  0  0  0
  -37.1080  146.3710    3.7900 F   0  0  0  0  0  0  0  0  0  0  0  0
  -36.1130  147.9260    2.6200 F   0  0  0  0  0  0  0  0  0  0  0  0
  -37.8330  149.7480    3.6950 C   0  0  0  0  0  0  0  0  0  0  0  0
  -37.7030  154.8290    4.5310 C   0  0  0  0  0  0  0  0  0  0  0  0
  -37.4440  156.2050    4.5880 C   0  0  0  0  0  0  0  0  0  0  0  0
  -37.9230  157.0270    3.5160 C   0  0  0  0  0  0  0  0  0  0  0  0
  -38.3320  157.7000    2.6100 C   0  0  0  0  0  0  0  0  0  0  0  0
  -38.8250  158.4980    1.5440 C   0  0  0  0  0  0  0  0  0  0  0  0
  -38.1610  158.9280    0.4170 C   0  0  0  0  0  0  0  0  0  0  0  0
  -38.9770  159.6880   -0.3850 N   0  0  0  0  0  0  0  0  0  0  0  0
  -40.1320  159.7270    0.2450 C   0  0  0  0  0  0  0  0  0  0  0  0
  -41.3490  160.3610   -0.0920 C   0  0  0  0  0  0  0  0  0  0  0  0
  -42.3980  160.2470    0.7320 C   0  0  0  0  0  0  0  0  0  0  0  0
  -42.2090  159.4440    1.9640 C   0  0  0  0  0  0  0  0  0  0  0  0
  -41.1230  158.8390    2.3280 N   0  0  0  0  0  0  0  0  0  0  0  0
  -40.0960  159.0090    1.4340 N   0  0  0  0  0  0  0  0  0  0  0  0
  -36.3930  158.5229    6.8236 H   0  0  0  0  0  0  0  0  0  0  0  0
  -35.4933  158.4441    5.2708 H   0  0  0  0  0  0  0  0  0  0  0  0
  -37.2562  158.7885    5.2708 H   0  0  0  0  0  0  0  0  0  0  0  0
  -35.7667  156.3163    7.5651 H   0  0  0  0  0  0  0  0  0  0  0  0
  -36.2314  153.8720    7.4617 H   0  0  0  0  0  0  0  0  0  0  0  0
  -38.4670  152.7540    3.7340 H   0  0  0  0  0  0  0  0  0  0  0  0
  -40.6753  151.2261    4.8375 H   0  0  0  0  0  0  0  0  0  0  0  0
  -41.5531  148.9383    4.4393 H   0  0  0  0  0  0  0  0  0  0  0  0
  -41.0406  146.8171    2.7625 H   0  0  0  0  0  0  0  0  0  0  0  0
  -39.4342  146.0909    3.2076 H   0  0  0  0  0  0  0  0  0  0  0  0
  -39.1000  145.2140    5.4239 H   0  0  0  0  0  0  0  0  0  0  0  0
  -39.2863  146.9448    5.9548 H   0  0  0  0  0  0  0  0  0  0  0  0
  -39.6219  144.9576    7.6713 H   0  0  0  0  0  0  0  0  0  0  0  0
  -40.7229  146.4450    7.6409 H   0  0  0  0  0  0  0  0  0  0  0  0
  -42.9647  145.5603    8.4040 H   0  0  0  0  0  0  0  0  0  0  0  0
  -42.6985  146.4595    6.8719 H   0  0  0  0  0  0  0  0  0  0  0  0
  -43.6822  144.9565    6.8719 H   0  0  0  0  0  0  0  0  0  0  0  0
  -40.8520  143.2972    5.6787 H   0  0  0  0  0  0  0  0  0  0  0  0
  -42.6775  143.5537    5.6972 H   0  0  0  0  0  0  0  0  0  0  0  0
  -41.1140  144.4166    3.6966 H   0  0  0  0  0  0  0  0  0  0  0  0
  -42.6223  145.2774    4.2941 H   0  0  0  0  0  0  0  0  0  0  0  0
  -36.7762  149.9787    3.4954 H   0  0  0  0  0  0  0  0  0  0  0  0
  -38.2641  154.4106    3.6824 H   0  0  0  0  0  0  0  0  0  0  0  0
  -37.1111  158.6929    0.1881 H   0  0  0  0  0  0  0  0  0  0  0  0
  -41.4337  160.9423   -1.0220 H   0  0  0  0  0  0  0  0  0  0  0  0
  -43.3602  160.7291    0.5044 H   0  0  0  0  0  0  0  0  0  0  0  0
  -43.0761  159.3531    2.6347 H   0  0  0  0  0  0  0  0  0  0  0  0
  1  2  1  0
  2  3  1  0
  3  4  2  0
  4  5  1  0
  5  6  1  0
  6  7  2  0
  6  8  1  0
  8  9  1  0
  9 10  1  0
 10 11  2  0
 11 12  1  0
 12 13  1  0
 13 14  1  0
 14 15  1  0
 15 16  1  0
 16 17  1  0
 17 18  1  0
 17 19  1  0
 19 20  1  0
 12 21  2  0
 21 22  1  0
 22 23  1  0
 22 24  1  0
 22 25  1  0
 21 26  1  0
  5 27  2  0
 27 28  1  0
 28 29  1  0
 29 30  3  0
 30 31  1  0
 31 32  2  0
 32 33  1  0
 33 34  2  0
 34 35  1  0
 35 36  2  0
 36 37  1  0
 37 38  2  0
 38 39  1  0
 28  2  2  0
 39 31  1  0
 26  9  2  0
 39 34  1  0
 20 14  1  0
  1 40  1  0
  1 41  1  0
  1 42  1  0
  3 43  1  0
  4 44  1  0
  8 45  1  0
 10 46  1  0
 11 47  1  0
 13 48  1  0
 13 49  1  0
 15 50  1  0
 15 51  1  0
 16 52  1  0
 16 53  1  0
 18 54  1  0
 18 55  1  0
 18 56  1  0
 19 57  1  0
 19 58  1  0
 20 59  1  0
 20 60  1  0
 26 61  1  0
 27 62  1  0
 32 63  1  0
 35 64  1  0
 36 65  1  0
 37 66  1  0
M  END
>  <meeko>  (9) 
{"is_sidechain": false}

>  <vina_affinity_kcal_mol>  (9) 
-9.993

>  <pose_rank>  (9) 
9

$$$$
