
     RDKit          3D

 54 57  0  0  0  0  0  0  0  0999 V2000
   -3.7985   -1.6641   -3.2290 C   0  0  0  0  0  0  0  0  0  0  0  0
   -4.0688   -0.2251   -2.8137 C   0  0  0  0  0  0  0  0  0  0  0  0
   -3.4829    0.0942   -1.5125 N   0  0  0  0  0  0  0  0  0  0  0  0
   -2.1884    0.6187   -1.5075 C   0  0  0  0  0  0  0  0  0  0  0  0
   -1.5222    0.7837   -2.5300 O   0  0  0  0  0  0  0  0  0  0  0  0
   -1.5945    0.9822   -0.1792 C   0  0  0  0  0  0  0  0  0  0  0  0
   -0.2570    1.6009   -0.1113 C   0  0  0  0  0  0  0  0  0  0  0  0
    0.8667    0.7618   -0.2331 C   0  0  0  0  0  0  0  0  0  0  0  0
    2.1651    1.2792   -0.1489 C   0  0  0  0  0  0  0  0  0  0  0  0
    3.2415    0.3753   -0.2879 N   0  0  0  0  0  0  0  0  0  0  0  0
    4.4749    0.5204    0.3364 C   0  0  0  0  0  0  0  0  0  0  0  0
    4.6971    1.3037    1.2488 O   0  0  0  0  0  0  0  0  0  0  0  0
    5.3757   -0.3869   -0.1980 N   0  0  0  0  0  0  0  0  0  0  0  0
    6.6878   -0.6550    0.2410 C   0  0  0  0  0  0  0  0  0  0  0  0
    7.2224   -0.1712    1.4363 C   0  0  0  0  0  0  0  0  0  0  0  0
    8.5315   -0.4936    1.8089 C   0  0  0  0  0  0  0  0  0  0  0  0
    9.3145   -1.3057    0.9921 C   0  0  0  0  0  0  0  0  0  0  0  0
    8.7887   -1.7989   -0.1987 C   0  0  0  0  0  0  0  0  0  0  0  0
    7.4809   -1.4766   -0.5711 C   0  0  0  0  0  0  0  0  0  0  0  0
    2.3295    2.6601    0.0093 C   0  0  0  0  0  0  0  0  0  0  0  0
    3.5442    3.2251   -0.0329 F   0  0  0  0  0  0  0  0  0  0  0  0
    1.2300    3.5067    0.1234 C   0  0  0  0  0  0  0  0  0  0  0  0
   -0.0609    2.9806    0.0679 C   0  0  0  0  0  0  0  0  0  0  0  0
   -1.5114    4.2010    0.2097 Br  0  0  0  0  0  0  0  0  0  0  0  0
   -2.2600    0.7353    0.9587 C   0  0  0  0  0  0  0  0  0  0  0  0
   -3.5836    0.1310    0.9192 C   0  0  0  0  0  0  0  0  0  0  0  0
   -4.2867   -0.1402    2.0848 C   0  0  0  0  0  0  0  0  0  0  0  0
   -5.5141   -0.7034    2.1192 N   0  0  0  0  0  0  0  0  0  0  0  0
   -6.0907   -1.0243    0.9477 C   0  0  0  0  0  0  0  0  0  0  0  0
   -7.3786   -1.5875    0.9170 N   0  0  0  0  0  0  0  0  0  0  0  0
   -7.9524   -1.8459    2.2284 C   0  0  0  0  0  0  0  0  0  0  0  0
   -5.4593   -0.7702   -0.2706 C   0  0  0  0  0  0  0  0  0  0  0  0
   -4.1875   -0.1858   -0.2976 C   0  0  0  0  0  0  0  0  0  0  0  0
   -4.2306   -2.3750   -2.5181 H   0  0  0  0  0  0  0  0  0  0  0  0
   -4.2319   -1.8618   -4.2142 H   0  0  0  0  0  0  0  0  0  0  0  0
   -2.7228   -1.8612   -3.2836 H   0  0  0  0  0  0  0  0  0  0  0  0
   -5.1406   -0.0034   -2.8149 H   0  0  0  0  0  0  0  0  0  0  0  0
   -3.6397    0.4399   -3.5733 H   0  0  0  0  0  0  0  0  0  0  0  0
    0.7156   -0.3052   -0.3843 H   0  0  0  0  0  0  0  0  0  0  0  0
    3.0076   -0.5810   -0.5123 H   0  0  0  0  0  0  0  0  0  0  0  0
    5.1236   -0.7548   -1.1031 H   0  0  0  0  0  0  0  0  0  0  0  0
    6.6443    0.4593    2.1050 H   0  0  0  0  0  0  0  0  0  0  0  0
    8.9357   -0.1057    2.7406 H   0  0  0  0  0  0  0  0  0  0  0  0
   10.3317   -1.5523    1.2846 H   0  0  0  0  0  0  0  0  0  0  0  0
    9.3962   -2.4331   -0.8389 H   0  0  0  0  0  0  0  0  0  0  0  0
    7.0958   -1.8744   -1.5060 H   0  0  0  0  0  0  0  0  0  0  0  0
    1.4034    4.5730    0.2333 H   0  0  0  0  0  0  0  0  0  0  0  0
   -1.8404    0.9867    1.9283 H   0  0  0  0  0  0  0  0  0  0  0  0
   -3.8755    0.0936    3.0633 H   0  0  0  0  0  0  0  0  0  0  0  0
   -7.3655   -2.4241    0.3413 H   0  0  0  0  0  0  0  0  0  0  0  0
   -8.9502   -2.2776    2.1000 H   0  0  0  0  0  0  0  0  0  0  0  0
   -8.0689   -0.9221    2.8057 H   0  0  0  0  0  0  0  0  0  0  0  0
   -7.3517   -2.5644    2.7969 H   0  0  0  0  0  0  0  0  0  0  0  0
   -5.9893   -1.0334   -1.1770 H   0  0  0  0  0  0  0  0  0  0  0  0
  1  2  1  0
  2  3  1  0
  3  4  1  0
  4  5  2  0
  4  6  1  0
  6  7  1  0
  7  8  1  0
  8  9  2  0
  9 10  1  0
 10 11  1  0
 11 12  2  0
 11 13  1  0
 13 14  1  0
 14 15  2  0
 15 16  1  0
 16 17  2  0
 17 18  1  0
 18 19  2  0
  9 20  1  0
 20 21  1  0
 20 22  2  0
 22 23  1  0
 23 24  1  0
  6 25  2  0
 25 26  1  0
 26 27  1  0
 27 28  2  0
 28 29  1  0
 29 30  1  0
 30 31  1  0
 29 32  2  0
 32 33  1  0
 33  3  1  0
 23  7  2  0
 33 26  2  0
 19 14  1  0
  1 34  1  0
  1 35  1  0
  1 36  1  0
  2 37  1  0
  2 38  1  0
  8 39  1  0
 10 40  1  0
 13 41  1  0
 15 42  1  0
 16 43  1  0
 17 44  1  0
 18 45  1  0
 19 46  1  0
 22 47  1  0
 25 48  1  0
 27 49  1  0
 30 50  1  0
 31 51  1  0
 31 52  1  0
 31 53  1  0
 32 54  1  0
M  END
$$$$
