
     RDKit          3D

 54 57  0  0  0  0  0  0  0  0999 V2000
  -12.8610   -5.1560   -9.7550 C   0  0  0  0  0  0  0  0  0  0  0  0
  -13.4060   -4.2040  -10.8090 C   0  0  0  0  0  0  0  0  0  0  0  0
  -12.8420   -2.8610  -10.6850 N   0  0  0  0  0  0  0  0  0  0  0  0
  -11.6480   -2.6040  -11.3640 C   0  0  0  0  0  0  0  0  0  0  0  0
  -11.0460   -3.4580  -12.0170 O   0  0  0  0  0  0  0  0  0  0  0  0
  -11.0830   -1.2190  -11.2700 C   0  0  0  0  0  0  0  0  0  0  0  0
   -9.8600   -0.8670  -12.0170 C   0  0  0  0  0  0  0  0  0  0  0  0
   -9.9960   -0.0830  -13.1790 C   0  0  0  0  0  0  0  0  0  0  0  0
   -8.8810    0.2630  -13.9500 C   0  0  0  0  0  0  0  0  0  0  0  0
   -9.0980    1.0580  -15.0980 N   0  0  0  0  0  0  0  0  0  0  0  0
   -8.9880    2.4420  -15.1270 C   0  0  0  0  0  0  0  0  0  0  0  0
   -8.4710    3.1110  -14.2420 O   0  0  0  0  0  0  0  0  0  0  0  0
   -9.5000    2.9240  -16.3210 N   0  0  0  0  0  0  0  0  0  0  0  0
   -9.4610    4.2490  -16.8000 C   0  0  0  0  0  0  0  0  0  0  0  0
  -10.3580    5.2440  -16.4080 C   0  0  0  0  0  0  0  0  0  0  0  0
  -10.2450    6.5410  -16.9190 C   0  0  0  0  0  0  0  0  0  0  0  0
   -9.2320    6.8540  -17.8230 C   0  0  0  0  0  0  0  0  0  0  0  0
   -8.3290    5.8710  -18.2160 C   0  0  0  0  0  0  0  0  0  0  0  0
   -8.4410    4.5750  -17.7040 C   0  0  0  0  0  0  0  0  0  0  0  0
   -7.6130   -0.1430  -13.5180 C   0  0  0  0  0  0  0  0  0  0  0  0
   -6.5010    0.2670  -14.1440 F   0  0  0  0  0  0  0  0  0  0  0  0
   -7.4570   -0.9110  -12.3670 C   0  0  0  0  0  0  0  0  0  0  0  0
   -8.5760   -1.2770  -11.6190 C   0  0  0  0  0  0  0  0  0  0  0  0
   -8.2820   -2.3080  -10.0500 Br  0  0  0  0  0  0  0  0  0  0  0  0
  -11.6680   -0.2910  -10.4980 C   0  0  0  0  0  0  0  0  0  0  0  0
  -12.8790   -0.6110   -9.7560 C   0  0  0  0  0  0  0  0  0  0  0  0
  -13.4960    0.3310   -8.9450 C   0  0  0  0  0  0  0  0  0  0  0  0
  -14.6160    0.0990   -8.2270 N   0  0  0  0  0  0  0  0  0  0  0  0
  -15.1670   -1.1250   -8.3000 C   0  0  0  0  0  0  0  0  0  0  0  0
  -16.3490   -1.4190   -7.5970 N   0  0  0  0  0  0  0  0  0  0  0  0
  -16.7380   -0.4070   -6.6280 C   0  0  0  0  0  0  0  0  0  0  0  0
  -14.6180   -2.1250   -9.1050 C   0  0  0  0  0  0  0  0  0  0  0  0
  -13.4580   -1.8770   -9.8460 C   0  0  0  0  0  0  0  0  0  0  0  0
  -13.0866   -4.7619   -8.7531 H   0  0  0  0  0  0  0  0  0  0  0  0
  -13.3306   -6.1435   -9.8749 H   0  0  0  0  0  0  0  0  0  0  0  0
  -11.7717   -5.2510   -9.8749 H   0  0  0  0  0  0  0  0  0  0  0  0
  -13.1607   -4.6006  -11.8053 H   0  0  0  0  0  0  0  0  0  0  0  0
  -14.4939   -4.1279  -10.6650 H   0  0  0  0  0  0  0  0  0  0  0  0
  -10.9944    0.2627  -13.4852 H   0  0  0  0  0  0  0  0  0  0  0  0
   -8.9420    0.6170  -15.9930 H   0  0  0  0  0  0  0  0  0  0  0  0
  -10.1210    2.2930  -16.8040 H   0  0  0  0  0  0  0  0  0  0  0  0
  -11.1590    5.0065  -15.6925 H   0  0  0  0  0  0  0  0  0  0  0  0
  -10.9588    7.3172  -16.6059 H   0  0  0  0  0  0  0  0  0  0  0  0
   -9.1464    7.8745  -18.2246 H   0  0  0  0  0  0  0  0  0  0  0  0
   -7.5274    6.1135  -18.9292 H   0  0  0  0  0  0  0  0  0  0  0  0
   -7.7211    3.8032  -18.0139 H   0  0  0  0  0  0  0  0  0  0  0  0
   -6.4532   -1.2285  -12.0482 H   0  0  0  0  0  0  0  0  0  0  0  0
  -11.2310    0.7158  -10.4253 H   0  0  0  0  0  0  0  0  0  0  0  0
  -13.0434    1.3317   -8.8830 H   0  0  0  0  0  0  0  0  0  0  0  0
  -16.2650   -2.3370   -7.1690 H   0  0  0  0  0  0  0  0  0  0  0  0
  -16.5881   -0.7969   -5.6104 H   0  0  0  0  0  0  0  0  0  0  0  0
  -16.1217    0.4930   -6.7703 H   0  0  0  0  0  0  0  0  0  0  0  0
  -17.7984   -0.1515   -6.7703 H   0  0  0  0  0  0  0  0  0  0  0  0
  -15.1000   -3.1124   -9.1567 H   0  0  0  0  0  0  0  0  0  0  0  0
  1  2  1  0
  2  3  1  0
  3  4  1  0
  4  5  2  0
  4  6  1  0
  6  7  1  0
  7  8  1  0
  8  9  2  0
  9 10  1  0
 10 11  1  0
 11 12  2  0
 11 13  1  0
 13 14  1  0
 14 15  2  0
 15 16  1  0
 16 17  2  0
 17 18  1  0
 18 19  2  0
  9 20  1  0
 20 21  1  0
 20 22  2  0
 22 23  1  0
 23 24  1  0
  6 25  2  0
 25 26  1  0
 26 27  2  0
 27 28  1  0
 28 29  2  0
 29 30  1  0
 30 31  1  0
 29 32  1  0
 32 33  2  0
 33  3  1  0
 23  7  2  0
 33 26  1  0
 19 14  1  0
  1 34  1  0
  1 35  1  0
  1 36  1  0
  2 37  1  0
  2 38  1  0
  8 39  1  0
 10 40  1  0
 13 41  1  0
 15 42  1  0
 16 43  1  0
 17 44  1  0
 18 45  1  0
 19 46  1  0
 22 47  1  0
 25 48  1  0
 27 49  1  0
 30 50  1  0
 31 51  1  0
 31 52  1  0
 31 53  1  0
 32 54  1  0
M  END
>  <meeko>  (1) 
{"is_sidechain": false}

>  <vina_affinity_kcal_mol>  (1) 
-8.731

>  <pose_rank>  (1) 
1

$$$$

     RDKit          3D

 54 57  0  0  0  0  0  0  0  0999 V2000
   -4.9390    0.7150  -17.8930 C   0  0  0  0  0  0  0  0  0  0  0  0
   -5.8790   -0.3330  -17.3160 C   0  0  0  0  0  0  0  0  0  0  0  0
   -6.3690    0.0340  -15.9890 N   0  0  0  0  0  0  0  0  0  0  0  0
   -7.5550    0.7710  -15.9260 C   0  0  0  0  0  0  0  0  0  0  0  0
   -8.1690    1.1470  -16.9250 O   0  0  0  0  0  0  0  0  0  0  0  0
   -8.0820    1.1190  -14.5670 C   0  0  0  0  0  0  0  0  0  0  0  0
   -9.3630    1.8390  -14.4320 C   0  0  0  0  0  0  0  0  0  0  0  0
   -9.4940    3.0820  -15.0810 C   0  0  0  0  0  0  0  0  0  0  0  0
  -10.6720    3.8310  -14.9720 C   0  0  0  0  0  0  0  0  0  0  0  0
  -10.7300    5.0650  -15.6580 N   0  0  0  0  0  0  0  0  0  0  0  0
  -10.3450    5.2480  -16.9800 C   0  0  0  0  0  0  0  0  0  0  0  0
  -10.1350    4.3370  -17.7690 O   0  0  0  0  0  0  0  0  0  0  0  0
  -10.2920    6.6030  -17.2660 N   0  0  0  0  0  0  0  0  0  0  0  0
  -10.0720    7.2090  -18.5190 C   0  0  0  0  0  0  0  0  0  0  0  0
  -10.4310    6.6300  -19.7370 C   0  0  0  0  0  0  0  0  0  0  0  0
  -10.1910    7.3030  -20.9390 C   0  0  0  0  0  0  0  0  0  0  0  0
   -9.5950    8.5610  -20.9330 C   0  0  0  0  0  0  0  0  0  0  0  0
   -9.2390    9.1510  -19.7240 C   0  0  0  0  0  0  0  0  0  0  0  0
   -9.4790    8.4790  -18.5220 C   0  0  0  0  0  0  0  0  0  0  0  0
  -11.7420    3.2990  -14.2440 C   0  0  0  0  0  0  0  0  0  0  0  0
  -12.9340    3.9100  -14.2130 F   0  0  0  0  0  0  0  0  0  0  0  0
  -11.6340    2.0670  -13.6030 C   0  0  0  0  0  0  0  0  0  0  0  0
  -10.4470    1.3400  -13.6910 C   0  0  0  0  0  0  0  0  0  0  0  0
  -10.3820   -0.3410  -12.8070 Br  0  0  0  0  0  0  0  0  0  0  0  0
   -7.3920    0.7990  -13.4620 C   0  0  0  0  0  0  0  0  0  0  0  0
   -6.1290    0.0830  -13.5670 C   0  0  0  0  0  0  0  0  0  0  0  0
   -5.3950   -0.2510  -12.4370 C   0  0  0  0  0  0  0  0  0  0  0  0
   -4.2160   -0.9080  -12.4630 N   0  0  0  0  0  0  0  0  0  0  0  0
   -3.7190   -1.2590  -13.6620 C   0  0  0  0  0  0  0  0  0  0  0  0
   -2.5090   -1.9690  -13.7540 N   0  0  0  0  0  0  0  0  0  0  0  0
   -1.7400   -1.6930  -14.9570 C   0  0  0  0  0  0  0  0  0  0  0  0
   -4.4010   -0.9750  -14.8470 C   0  0  0  0  0  0  0  0  0  0  0  0
   -5.6230   -0.2940  -14.8110 C   0  0  0  0  0  0  0  0  0  0  0  0
   -4.4499    1.2603  -17.0724 H   0  0  0  0  0  0  0  0  0  0  0  0
   -4.1752    0.2215  -18.5119 H   0  0  0  0  0  0  0  0  0  0  0  0
   -5.5124    1.4209  -18.5119 H   0  0  0  0  0  0  0  0  0  0  0  0
   -6.7393   -0.4475  -17.9919 H   0  0  0  0  0  0  0  0  0  0  0  0
   -5.3169   -1.2736  -17.2196 H   0  0  0  0  0  0  0  0  0  0  0  0
   -8.6587    3.4701  -15.6823 H   0  0  0  0  0  0  0  0  0  0  0  0
  -11.4160    5.7320  -15.3360 H   0  0  0  0  0  0  0  0  0  0  0  0
  -10.2230    7.2060  -16.4600 H   0  0  0  0  0  0  0  0  0  0  0  0
  -10.9058    5.6379  -19.7516 H   0  0  0  0  0  0  0  0  0  0  0  0
  -10.4745    6.8361  -21.8938 H   0  0  0  0  0  0  0  0  0  0  0  0
   -9.4061    9.0868  -21.8805 H   0  0  0  0  0  0  0  0  0  0  0  0
   -8.7691   10.1455  -19.7142 H   0  0  0  0  0  0  0  0  0  0  0  0
   -9.1996    8.9517  -17.5688 H   0  0  0  0  0  0  0  0  0  0  0  0
  -12.4832    1.6683  -13.0286 H   0  0  0  0  0  0  0  0  0  0  0  0
   -7.7823    1.0789  -12.4724 H   0  0  0  0  0  0  0  0  0  0  0  0
   -5.8006    0.0386  -11.4564 H   0  0  0  0  0  0  0  0  0  0  0  0
   -2.6940   -2.9630  -13.6460 H   0  0  0  0  0  0  0  0  0  0  0  0
   -0.7386   -1.3336  -14.6776 H   0  0  0  0  0  0  0  0  0  0  0  0
   -1.6465   -2.6137  -15.5517 H   0  0  0  0  0  0  0  0  0  0  0  0
   -2.2533   -0.9230  -15.5517 H   0  0  0  0  0  0  0  0  0  0  0  0
   -3.9761   -1.2877  -15.8122 H   0  0  0  0  0  0  0  0  0  0  0  0
  1  2  1  0
  2  3  1  0
  3  4  1  0
  4  5  2  0
  4  6  1  0
  6  7  1  0
  7  8  1  0
  8  9  2  0
  9 10  1  0
 10 11  1  0
 11 12  2  0
 11 13  1  0
 13 14  1  0
 14 15  2  0
 15 16  1  0
 16 17  2  0
 17 18  1  0
 18 19  2  0
  9 20  1  0
 20 21  1  0
 20 22  2  0
 22 23  1  0
 23 24  1  0
  6 25  2  0
 25 26  1  0
 26 27  2  0
 27 28  1  0
 28 29  2  0
 29 30  1  0
 30 31  1  0
 29 32  1  0
 32 33  2  0
 33  3  1  0
 23  7  2  0
 33 26  1  0
 19 14  1  0
  1 34  1  0
  1 35  1  0
  1 36  1  0
  2 37  1  0
  2 38  1  0
  8 39  1  0
 10 40  1  0
 13 41  1  0
 15 42  1  0
 16 43  1  0
 17 44  1  0
 18 45  1  0
 19 46  1  0
 22 47  1  0
 25 48  1  0
 27 49  1  0
 30 50  1  0
 31 51  1  0
 31 52  1  0
 31 53  1  0
 32 54  1  0
M  END
>  <meeko>  (2) 
{"is_sidechain": false}

>  <vina_affinity_kcal_mol>  (2) 
-8.471

>  <pose_rank>  (2) 
2

$$$$

     RDKit          3D

 54 57  0  0  0  0  0  0  0  0999 V2000
   -7.1710    0.0030  -15.2440 C   0  0  0  0  0  0  0  0  0  0  0  0
   -8.4990    0.1630  -15.9700 C   0  0  0  0  0  0  0  0  0  0  0  0
   -9.3400    1.1950  -15.3640 N   0  0  0  0  0  0  0  0  0  0  0  0
  -10.1980    0.7970  -14.3360 C   0  0  0  0  0  0  0  0  0  0  0  0
  -10.3000   -0.3700  -13.9550 O   0  0  0  0  0  0  0  0  0  0  0  0
  -11.0360    1.8570  -13.6860 C   0  0  0  0  0  0  0  0  0  0  0  0
  -11.9150    1.5120  -12.5510 C   0  0  0  0  0  0  0  0  0  0  0  0
  -11.4990    0.4870  -11.6800 C   0  0  0  0  0  0  0  0  0  0  0  0
  -12.2980    0.0900  -10.6010 C   0  0  0  0  0  0  0  0  0  0  0  0
  -11.8090   -0.9410   -9.7680 N   0  0  0  0  0  0  0  0  0  0  0  0
  -11.9020   -2.2970  -10.0590 C   0  0  0  0  0  0  0  0  0  0  0  0
  -12.1980   -2.7460  -11.1580 O   0  0  0  0  0  0  0  0  0  0  0  0
  -11.5580   -3.0370   -8.9400 N   0  0  0  0  0  0  0  0  0  0  0  0
  -11.3970   -4.4340   -8.8490 C   0  0  0  0  0  0  0  0  0  0  0  0
  -10.1660   -5.0650   -8.6640 C   0  0  0  0  0  0  0  0  0  0  0  0
  -10.0910   -6.4590   -8.5700 C   0  0  0  0  0  0  0  0  0  0  0  0
  -11.2460   -7.2310   -8.6570 C   0  0  0  0  0  0  0  0  0  0  0  0
  -12.4800   -6.6120   -8.8360 C   0  0  0  0  0  0  0  0  0  0  0  0
  -12.5550   -5.2200   -8.9290 C   0  0  0  0  0  0  0  0  0  0  0  0
  -13.5010    0.7670  -10.3700 C   0  0  0  0  0  0  0  0  0  0  0  0
  -14.2410    0.5180   -9.2810 F   0  0  0  0  0  0  0  0  0  0  0  0
  -13.9240    1.7900  -11.2160 C   0  0  0  0  0  0  0  0  0  0  0  0
  -13.1380    2.1600  -12.3070 C   0  0  0  0  0  0  0  0  0  0  0  0
  -13.7710    3.5770  -13.4030 Br  0  0  0  0  0  0  0  0  0  0  0  0
  -11.0130    3.1200  -14.1350 C   0  0  0  0  0  0  0  0  0  0  0  0
  -10.1500    3.4870  -15.2480 C   0  0  0  0  0  0  0  0  0  0  0  0
  -10.1150    4.7870  -15.7330 C   0  0  0  0  0  0  0  0  0  0  0  0
   -9.3430    5.1930  -16.7650 N   0  0  0  0  0  0  0  0  0  0  0  0
   -8.5600    4.2780  -17.3620 C   0  0  0  0  0  0  0  0  0  0  0  0
   -7.7130    4.6460  -18.4220 N   0  0  0  0  0  0  0  0  0  0  0  0
   -8.1420    5.8300  -19.1490 C   0  0  0  0  0  0  0  0  0  0  0  0
   -8.5230    2.9520  -16.9250 C   0  0  0  0  0  0  0  0  0  0  0  0
   -9.3250    2.5400  -15.8560 C   0  0  0  0  0  0  0  0  0  0  0  0
   -7.3422    0.0236  -14.1576 H   0  0  0  0  0  0  0  0  0  0  0  0
   -6.7129   -0.9568  -15.5248 H   0  0  0  0  0  0  0  0  0  0  0  0
   -6.4980    0.8266  -15.5248 H   0  0  0  0  0  0  0  0  0  0  0  0
   -8.2997    0.4379  -17.0163 H   0  0  0  0  0  0  0  0  0  0  0  0
   -9.0377   -0.7937  -15.9027 H   0  0  0  0  0  0  0  0  0  0  0  0
  -10.5320   -0.0092  -11.8497 H   0  0  0  0  0  0  0  0  0  0  0  0
  -11.0420   -0.7070   -9.1550 H   0  0  0  0  0  0  0  0  0  0  0  0
  -11.6090   -2.5360   -8.0650 H   0  0  0  0  0  0  0  0  0  0  0  0
   -9.2486   -4.4624   -8.5916 H   0  0  0  0  0  0  0  0  0  0  0  0
   -9.1155   -6.9468   -8.4268 H   0  0  0  0  0  0  0  0  0  0  0  0
  -11.1839   -8.3268   -8.5845 H   0  0  0  0  0  0  0  0  0  0  0  0
  -13.3953   -7.2183   -8.9042 H   0  0  0  0  0  0  0  0  0  0  0  0
  -13.5330   -4.7357   -9.0664 H   0  0  0  0  0  0  0  0  0  0  0  0
  -14.8767    2.3052  -11.0237 H   0  0  0  0  0  0  0  0  0  0  0  0
  -11.6488    3.8819  -13.6604 H   0  0  0  0  0  0  0  0  0  0  0  0
  -10.7574    5.5353  -15.2457 H   0  0  0  0  0  0  0  0  0  0  0  0
   -7.5860    3.8500  -19.0420 H   0  0  0  0  0  0  0  0  0  0  0  0
   -8.4268    6.6160  -18.4341 H   0  0  0  0  0  0  0  0  0  0  0  0
   -7.3174    6.1908  -19.7814 H   0  0  0  0  0  0  0  0  0  0  0  0
   -9.0063    5.5789  -19.7814 H   0  0  0  0  0  0  0  0  0  0  0  0
   -7.8606    2.2290  -17.4235 H   0  0  0  0  0  0  0  0  0  0  0  0
  1  2  1  0
  2  3  1  0
  3  4  1  0
  4  5  2  0
  4  6  1  0
  6  7  1  0
  7  8  1  0
  8  9  2  0
  9 10  1  0
 10 11  1  0
 11 12  2  0
 11 13  1  0
 13 14  1  0
 14 15  2  0
 15 16  1  0
 16 17  2  0
 17 18  1  0
 18 19  2  0
  9 20  1  0
 20 21  1  0
 20 22  2  0
 22 23  1  0
 23 24  1  0
  6 25  2  0
 25 26  1  0
 26 27  2  0
 27 28  1  0
 28 29  2  0
 29 30  1  0
 30 31  1  0
 29 32  1  0
 32 33  2  0
 33  3  1  0
 23  7  2  0
 33 26  1  0
 19 14  1  0
  1 34  1  0
  1 35  1  0
  1 36  1  0
  2 37  1  0
  2 38  1  0
  8 39  1  0
 10 40  1  0
 13 41  1  0
 15 42  1  0
 16 43  1  0
 17 44  1  0
 18 45  1  0
 19 46  1  0
 22 47  1  0
 25 48  1  0
 27 49  1  0
 30 50  1  0
 31 51  1  0
 31 52  1  0
 31 53  1  0
 32 54  1  0
M  END
>  <meeko>  (3) 
{"is_sidechain": false}

>  <vina_affinity_kcal_mol>  (3) 
-8.33

>  <pose_rank>  (3) 
3

$$$$

     RDKit          3D

 54 57  0  0  0  0  0  0  0  0999 V2000
  -12.8300    5.6020  -16.5580 C   0  0  0  0  0  0  0  0  0  0  0  0
  -11.5360    5.9730  -15.8470 C   0  0  0  0  0  0  0  0  0  0  0  0
  -10.3830    5.2560  -16.3900 N   0  0  0  0  0  0  0  0  0  0  0  0
   -9.9650    4.1090  -15.7100 C   0  0  0  0  0  0  0  0  0  0  0  0
  -10.4960    3.7090  -14.6720 O   0  0  0  0  0  0  0  0  0  0  0  0
   -8.8060    3.3490  -16.2810 C   0  0  0  0  0  0  0  0  0  0  0  0
   -8.3590    2.0950  -15.6460 C   0  0  0  0  0  0  0  0  0  0  0  0
   -8.9100    1.7530  -14.3970 C   0  0  0  0  0  0  0  0  0  0  0  0
   -8.5100    0.5920  -13.7250 C   0  0  0  0  0  0  0  0  0  0  0  0
   -9.1130    0.3130  -12.4790 N   0  0  0  0  0  0  0  0  0  0  0  0
  -10.2630   -0.4510  -12.3160 C   0  0  0  0  0  0  0  0  0  0  0  0
  -10.7500   -1.1570  -13.1880 O   0  0  0  0  0  0  0  0  0  0  0  0
  -10.7240   -0.3250  -11.0150 N   0  0  0  0  0  0  0  0  0  0  0  0
  -11.7810   -1.0310  -10.4060 C   0  0  0  0  0  0  0  0  0  0  0  0
  -11.7450   -2.3990  -10.1320 C   0  0  0  0  0  0  0  0  0  0  0  0
  -12.8310   -3.0260   -9.5110 C   0  0  0  0  0  0  0  0  0  0  0  0
  -13.9580   -2.2880   -9.1560 C   0  0  0  0  0  0  0  0  0  0  0  0
  -14.0010   -0.9220   -9.4200 C   0  0  0  0  0  0  0  0  0  0  0  0
  -12.9160   -0.2970  -10.0390 C   0  0  0  0  0  0  0  0  0  0  0  0
   -7.5830   -0.2560  -14.3430 C   0  0  0  0  0  0  0  0  0  0  0  0
   -7.2600   -1.4420  -13.8080 F   0  0  0  0  0  0  0  0  0  0  0  0
   -7.0330    0.0610  -15.5830 C   0  0  0  0  0  0  0  0  0  0  0  0
   -7.4150    1.2350  -16.2330 C   0  0  0  0  0  0  0  0  0  0  0  0
   -6.6380    1.5890  -17.9300 Br  0  0  0  0  0  0  0  0  0  0  0  0
   -8.1530    3.8060  -17.3600 C   0  0  0  0  0  0  0  0  0  0  0  0
   -8.5780    5.0370  -18.0090 C   0  0  0  0  0  0  0  0  0  0  0  0
   -7.9120    5.5310  -19.1220 C   0  0  0  0  0  0  0  0  0  0  0  0
   -8.2500    6.6690  -19.7670 N   0  0  0  0  0  0  0  0  0  0  0  0
   -9.2980    7.3690  -19.3000 C   0  0  0  0  0  0  0  0  0  0  0  0
   -9.7160    8.5460  -19.9450 N   0  0  0  0  0  0  0  0  0  0  0  0
   -8.9200    9.7200  -19.6260 C   0  0  0  0  0  0  0  0  0  0  0  0
  -10.0330    6.9330  -18.1950 C   0  0  0  0  0  0  0  0  0  0  0  0
   -9.6760    5.7540  -17.5320 C   0  0  0  0  0  0  0  0  0  0  0  0
  -13.6073    5.3792  -15.8122 H   0  0  0  0  0  0  0  0  0  0  0  0
  -13.1564    6.4427  -17.1878 H   0  0  0  0  0  0  0  0  0  0  0  0
  -12.6613    4.7160  -17.1878 H   0  0  0  0  0  0  0  0  0  0  0  0
  -11.3667    7.0540  -15.9604 H   0  0  0  0  0  0  0  0  0  0  0  0
  -11.6399    5.6934  -14.7882 H   0  0  0  0  0  0  0  0  0  0  0  0
   -9.6670    2.4084  -13.9416 H   0  0  0  0  0  0  0  0  0  0  0  0
   -8.5110    0.3210  -11.6690 H   0  0  0  0  0  0  0  0  0  0  0  0
  -10.3840    0.4850  -10.5190 H   0  0  0  0  0  0  0  0  0  0  0  0
  -10.8573   -2.9881  -10.4059 H   0  0  0  0  0  0  0  0  0  0  0  0
  -12.7947   -4.1054   -9.3024 H   0  0  0  0  0  0  0  0  0  0  0  0
  -14.8109   -2.7831   -8.6688 H   0  0  0  0  0  0  0  0  0  0  0  0
  -14.8887   -0.3352   -9.1414 H   0  0  0  0  0  0  0  0  0  0  0  0
  -12.9534    0.7837  -10.2405 H   0  0  0  0  0  0  0  0  0  0  0  0
   -6.2990   -0.6130  -16.0488 H   0  0  0  0  0  0  0  0  0  0  0  0
   -7.2921    3.2474  -17.7561 H   0  0  0  0  0  0  0  0  0  0  0  0
   -7.0534    4.9590  -19.5036 H   0  0  0  0  0  0  0  0  0  0  0  0
  -10.7030    8.7000  -19.7580 H   0  0  0  0  0  0  0  0  0  0  0  0
   -8.8469    9.8277  -18.5337 H   0  0  0  0  0  0  0  0  0  0  0  0
   -7.9120    9.6062  -20.0515 H   0  0  0  0  0  0  0  0  0  0  0  0
   -9.3988   10.6143  -20.0515 H   0  0  0  0  0  0  0  0  0  0  0  0
  -10.8957    7.5189  -17.8449 H   0  0  0  0  0  0  0  0  0  0  0  0
  1  2  1  0
  2  3  1  0
  3  4  1  0
  4  5  2  0
  4  6  1  0
  6  7  1  0
  7  8  1  0
  8  9  2  0
  9 10  1  0
 10 11  1  0
 11 12  2  0
 11 13  1  0
 13 14  1  0
 14 15  2  0
 15 16  1  0
 16 17  2  0
 17 18  1  0
 18 19  2  0
  9 20  1  0
 20 21  1  0
 20 22  2  0
 22 23  1  0
 23 24  1  0
  6 25  2  0
 25 26  1  0
 26 27  2  0
 27 28  1  0
 28 29  2  0
 29 30  1  0
 30 31  1  0
 29 32  1  0
 32 33  2  0
 33  3  1  0
 23  7  2  0
 33 26  1  0
 19 14  1  0
  1 34  1  0
  1 35  1  0
  1 36  1  0
  2 37  1  0
  2 38  1  0
  8 39  1  0
 10 40  1  0
 13 41  1  0
 15 42  1  0
 16 43  1  0
 17 44  1  0
 18 45  1  0
 19 46  1  0
 22 47  1  0
 25 48  1  0
 27 49  1  0
 30 50  1  0
 31 51  1  0
 31 52  1  0
 31 53  1  0
 32 54  1  0
M  END
>  <meeko>  (4) 
{"is_sidechain": false}

>  <vina_affinity_kcal_mol>  (4) 
-7.918

>  <pose_rank>  (4) 
4

$$$$

     RDKit          3D

 54 57  0  0  0  0  0  0  0  0999 V2000
   -7.1430    0.1030  -15.2400 C   0  0  0  0  0  0  0  0  0  0  0  0
   -8.4740    0.2570  -15.9620 C   0  0  0  0  0  0  0  0  0  0  0  0
   -9.3140    1.2910  -15.3590 N   0  0  0  0  0  0  0  0  0  0  0  0
  -10.1680    0.8970  -14.3250 C   0  0  0  0  0  0  0  0  0  0  0  0
  -10.2660   -0.2680  -13.9370 O   0  0  0  0  0  0  0  0  0  0  0  0
  -11.0060    1.9590  -13.6780 C   0  0  0  0  0  0  0  0  0  0  0  0
  -11.8790    1.6190  -12.5380 C   0  0  0  0  0  0  0  0  0  0  0  0
  -11.4180    0.6640  -11.6120 C   0  0  0  0  0  0  0  0  0  0  0  0
  -12.2070    0.2740  -10.5250 C   0  0  0  0  0  0  0  0  0  0  0  0
  -11.6720   -0.6850   -9.6350 N   0  0  0  0  0  0  0  0  0  0  0  0
  -11.0540   -0.3780   -8.4290 C   0  0  0  0  0  0  0  0  0  0  0  0
  -11.1040    0.7180   -7.8880 O   0  0  0  0  0  0  0  0  0  0  0  0
  -10.4290   -1.5080   -7.9260 N   0  0  0  0  0  0  0  0  0  0  0  0
   -9.8040   -1.6590   -6.6730 C   0  0  0  0  0  0  0  0  0  0  0  0
   -8.4600   -1.3670   -6.4340 C   0  0  0  0  0  0  0  0  0  0  0  0
   -7.9170   -1.5290   -5.1550 C   0  0  0  0  0  0  0  0  0  0  0  0
   -8.7130   -1.9810   -4.1060 C   0  0  0  0  0  0  0  0  0  0  0  0
  -10.0550   -2.2700   -4.3320 C   0  0  0  0  0  0  0  0  0  0  0  0
  -10.5990   -2.1060   -5.6090 C   0  0  0  0  0  0  0  0  0  0  0  0
  -13.4510    0.8890  -10.3420 C   0  0  0  0  0  0  0  0  0  0  0  0
  -14.1920    0.6500   -9.2510 F   0  0  0  0  0  0  0  0  0  0  0  0
  -13.9210    1.8420  -11.2420 C   0  0  0  0  0  0  0  0  0  0  0  0
  -13.1420    2.2050  -12.3410 C   0  0  0  0  0  0  0  0  0  0  0  0
  -13.8400    3.5260  -13.5140 Br  0  0  0  0  0  0  0  0  0  0  0  0
  -10.9860    3.2200  -14.1330 C   0  0  0  0  0  0  0  0  0  0  0  0
  -10.1280    3.5820  -15.2520 C   0  0  0  0  0  0  0  0  0  0  0  0
  -10.0970    4.8800  -15.7440 C   0  0  0  0  0  0  0  0  0  0  0  0
   -9.3300    5.2820  -16.7810 N   0  0  0  0  0  0  0  0  0  0  0  0
   -8.5470    4.3650  -17.3760 C   0  0  0  0  0  0  0  0  0  0  0  0
   -7.7050    4.7280  -18.4420 N   0  0  0  0  0  0  0  0  0  0  0  0
   -8.1620    5.8810  -19.2010 C   0  0  0  0  0  0  0  0  0  0  0  0
   -8.5060    3.0410  -16.9320 C   0  0  0  0  0  0  0  0  0  0  0  0
   -9.3040    2.6330  -15.8570 C   0  0  0  0  0  0  0  0  0  0  0  0
   -7.3111    0.1224  -14.1531 H   0  0  0  0  0  0  0  0  0  0  0  0
   -6.6812   -0.8546  -15.5226 H   0  0  0  0  0  0  0  0  0  0  0  0
   -6.4748    0.9298  -15.5226 H   0  0  0  0  0  0  0  0  0  0  0  0
   -8.2790    0.5262  -17.0106 H   0  0  0  0  0  0  0  0  0  0  0  0
   -9.0111   -0.7000  -15.8872 H   0  0  0  0  0  0  0  0  0  0  0  0
  -10.4216    0.2175  -11.7455 H   0  0  0  0  0  0  0  0  0  0  0  0
  -12.0790   -1.6080   -9.6620 H   0  0  0  0  0  0  0  0  0  0  0  0
  -10.2490   -2.2330   -8.6050 H   0  0  0  0  0  0  0  0  0  0  0  0
   -7.8241   -1.0074   -7.2564 H   0  0  0  0  0  0  0  0  0  0  0  0
   -6.8563   -1.2982   -4.9773 H   0  0  0  0  0  0  0  0  0  0  0  0
   -8.2823   -2.1092   -3.1020 H   0  0  0  0  0  0  0  0  0  0  0  0
  -10.6876   -2.6274   -3.5061 H   0  0  0  0  0  0  0  0  0  0  0  0
  -11.6622   -2.3301   -5.7806 H   0  0  0  0  0  0  0  0  0  0  0  0
  -14.9052    2.3080  -11.0866 H   0  0  0  0  0  0  0  0  0  0  0  0
  -11.6201    3.9838  -13.6591 H   0  0  0  0  0  0  0  0  0  0  0  0
  -10.7386    5.6297  -15.2579 H   0  0  0  0  0  0  0  0  0  0  0  0
   -7.5530    3.9210  -19.0400 H   0  0  0  0  0  0  0  0  0  0  0  0
   -8.4767    6.6750  -18.5078 H   0  0  0  0  0  0  0  0  0  0  0  0
   -7.3426    6.2511  -19.8347 H   0  0  0  0  0  0  0  0  0  0  0  0
   -9.0125    5.5892  -19.8347 H   0  0  0  0  0  0  0  0  0  0  0  0
   -7.8441    2.3166  -17.4291 H   0  0  0  0  0  0  0  0  0  0  0  0
  1  2  1  0
  2  3  1  0
  3  4  1  0
  4  5  2  0
  4  6  1  0
  6  7  1  0
  7  8  1  0
  8  9  2  0
  9 10  1  0
 10 11  1  0
 11 12  2  0
 11 13  1  0
 13 14  1  0
 14 15  2  0
 15 16  1  0
 16 17  2  0
 17 18  1  0
 18 19  2  0
  9 20  1  0
 20 21  1  0
 20 22  2  0
 22 23  1  0
 23 24  1  0
  6 25  2  0
 25 26  1  0
 26 27  2  0
 27 28  1  0
 28 29  2  0
 29 30  1  0
 30 31  1  0
 29 32  1  0
 32 33  2  0
 33  3  1  0
 23  7  2  0
 33 26  1  0
 19 14  1  0
  1 34  1  0
  1 35  1  0
  1 36  1  0
  2 37  1  0
  2 38  1  0
  8 39  1  0
 10 40  1  0
 13 41  1  0
 15 42  1  0
 16 43  1  0
 17 44  1  0
 18 45  1  0
 19 46  1  0
 22 47  1  0
 25 48  1  0
 27 49  1  0
 30 50  1  0
 31 51  1  0
 31 52  1  0
 31 53  1  0
 32 54  1  0
M  END
>  <meeko>  (5) 
{"is_sidechain": false}

>  <vina_affinity_kcal_mol>  (5) 
-7.912

>  <pose_rank>  (5) 
5

$$$$

     RDKit          3D

 54 57  0  0  0  0  0  0  0  0999 V2000
   -6.5590   -0.2160  -12.6110 C   0  0  0  0  0  0  0  0  0  0  0  0
   -7.5560   -0.7500  -13.6290 C   0  0  0  0  0  0  0  0  0  0  0  0
   -8.0160    0.2890  -14.5500 N   0  0  0  0  0  0  0  0  0  0  0  0
   -9.1660    0.9970  -14.1910 C   0  0  0  0  0  0  0  0  0  0  0  0
   -9.8150    0.7590  -13.1710 O   0  0  0  0  0  0  0  0  0  0  0  0
   -9.6230    2.0870  -15.1120 C   0  0  0  0  0  0  0  0  0  0  0  0
  -10.7930    2.9140  -14.7570 C   0  0  0  0  0  0  0  0  0  0  0  0
  -11.7200    2.3880  -13.8370 C   0  0  0  0  0  0  0  0  0  0  0  0
  -12.8660    3.1070  -13.4780 C   0  0  0  0  0  0  0  0  0  0  0  0
  -13.7460    2.5150  -12.5440 N   0  0  0  0  0  0  0  0  0  0  0  0
  -13.3400    1.7400  -11.4650 C   0  0  0  0  0  0  0  0  0  0  0  0
  -12.1870    1.6700  -11.0610 O   0  0  0  0  0  0  0  0  0  0  0  0
  -14.4410    1.1160  -10.9010 N   0  0  0  0  0  0  0  0  0  0  0  0
  -14.4830    0.3510   -9.7180 C   0  0  0  0  0  0  0  0  0  0  0  0
  -14.9950    0.8190   -8.5070 C   0  0  0  0  0  0  0  0  0  0  0  0
  -15.0140   -0.0080   -7.3790 C   0  0  0  0  0  0  0  0  0  0  0  0
  -14.5250   -1.3100   -7.4550 C   0  0  0  0  0  0  0  0  0  0  0  0
  -14.0180   -1.7890   -8.6590 C   0  0  0  0  0  0  0  0  0  0  0  0
  -14.0000   -0.9630   -9.7860 C   0  0  0  0  0  0  0  0  0  0  0  0
  -13.0520    4.3870  -14.0130 C   0  0  0  0  0  0  0  0  0  0  0  0
  -14.0610    5.1700  -13.6080 F   0  0  0  0  0  0  0  0  0  0  0  0
  -12.1420    4.9270  -14.9180 C   0  0  0  0  0  0  0  0  0  0  0  0
  -11.0160    4.1930  -15.2940 C   0  0  0  0  0  0  0  0  0  0  0  0
   -9.8090    5.0050  -16.5160 Br  0  0  0  0  0  0  0  0  0  0  0  0
   -8.9900    2.3140  -16.2720 C   0  0  0  0  0  0  0  0  0  0  0  0
   -7.8290    1.5170  -16.6430 C   0  0  0  0  0  0  0  0  0  0  0  0
   -7.1630    1.7300  -17.8420 C   0  0  0  0  0  0  0  0  0  0  0  0
   -6.0860    1.0240  -18.2490 N   0  0  0  0  0  0  0  0  0  0  0  0
   -5.6310    0.0500  -17.4410 C   0  0  0  0  0  0  0  0  0  0  0  0
   -4.4970   -0.7000  -17.7970 N   0  0  0  0  0  0  0  0  0  0  0  0
   -3.3980    0.0890  -18.3290 C   0  0  0  0  0  0  0  0  0  0  0  0
   -6.2330   -0.2180  -16.2100 C   0  0  0  0  0  0  0  0  0  0  0  0
   -7.3480    0.5180  -15.7960 C   0  0  0  0  0  0  0  0  0  0  0  0
   -6.9304   -0.4149  -11.5949 H   0  0  0  0  0  0  0  0  0  0  0  0
   -5.5889   -0.7153  -12.7511 H   0  0  0  0  0  0  0  0  0  0  0  0
   -6.4370    0.8682  -12.7511 H   0  0  0  0  0  0  0  0  0  0  0  0
   -7.0746   -1.5504  -14.2100 H   0  0  0  0  0  0  0  0  0  0  0  0
   -8.4316   -1.1253  -13.0791 H   0  0  0  0  0  0  0  0  0  0  0  0
  -11.5409    1.3973  -13.3938 H   0  0  0  0  0  0  0  0  0  0  0  0
  -14.6380    2.9680  -12.4090 H   0  0  0  0  0  0  0  0  0  0  0  0
  -15.2500    1.0560  -11.5000 H   0  0  0  0  0  0  0  0  0  0  0  0
  -15.3861    1.8449   -8.4391 H   0  0  0  0  0  0  0  0  0  0  0  0
  -15.4167    0.3714   -6.4283 H   0  0  0  0  0  0  0  0  0  0  0  0
  -14.5396   -1.9576   -6.5659 H   0  0  0  0  0  0  0  0  0  0  0  0
  -13.6317   -2.8169   -8.7236 H   0  0  0  0  0  0  0  0  0  0  0  0
  -13.6025   -1.3481  -10.7366 H   0  0  0  0  0  0  0  0  0  0  0  0
  -12.3103    5.9305  -15.3360 H   0  0  0  0  0  0  0  0  0  0  0  0
   -9.3491    3.1055  -16.9462 H   0  0  0  0  0  0  0  0  0  0  0  0
   -7.5366    2.5254  -18.5036 H   0  0  0  0  0  0  0  0  0  0  0  0
   -4.7710   -1.4410  -18.4360 H   0  0  0  0  0  0  0  0  0  0  0  0
   -2.8125    0.5093  -17.4980 H   0  0  0  0  0  0  0  0  0  0  0  0
   -2.7512   -0.5523  -18.9458 H   0  0  0  0  0  0  0  0  0  0  0  0
   -3.7987    0.9069  -18.9458 H   0  0  0  0  0  0  0  0  0  0  0  0
   -5.8289   -1.0109  -15.5634 H   0  0  0  0  0  0  0  0  0  0  0  0
  1  2  1  0
  2  3  1  0
  3  4  1  0
  4  5  2  0
  4  6  1  0
  6  7  1  0
  7  8  1  0
  8  9  2  0
  9 10  1  0
 10 11  1  0
 11 12  2  0
 11 13  1  0
 13 14  1  0
 14 15  2  0
 15 16  1  0
 16 17  2  0
 17 18  1  0
 18 19  2  0
  9 20  1  0
 20 21  1  0
 20 22  2  0
 22 23  1  0
 23 24  1  0
  6 25  2  0
 25 26  1  0
 26 27  2  0
 27 28  1  0
 28 29  2  0
 29 30  1  0
 30 31  1  0
 29 32  1  0
 32 33  2  0
 33  3  1  0
 23  7  2  0
 33 26  1  0
 19 14  1  0
  1 34  1  0
  1 35  1  0
  1 36  1  0
  2 37  1  0
  2 38  1  0
  8 39  1  0
 10 40  1  0
 13 41  1  0
 15 42  1  0
 16 43  1  0
 17 44  1  0
 18 45  1  0
 19 46  1  0
 22 47  1  0
 25 48  1  0
 27 49  1  0
 30 50  1  0
 31 51  1  0
 31 52  1  0
 31 53  1  0
 32 54  1  0
M  END
>  <meeko>  (6) 
{"is_sidechain": false}

>  <vina_affinity_kcal_mol>  (6) 
-7.888

>  <pose_rank>  (6) 
6

$$$$

     RDKit          3D

 54 57  0  0  0  0  0  0  0  0999 V2000
  -12.1570   -4.6200   -8.4910 C   0  0  0  0  0  0  0  0  0  0  0  0
  -10.8890   -3.9090   -8.9410 C   0  0  0  0  0  0  0  0  0  0  0  0
  -10.9590   -2.4650   -8.7250 N   0  0  0  0  0  0  0  0  0  0  0  0
  -11.5160   -1.6920   -9.7480 C   0  0  0  0  0  0  0  0  0  0  0  0
  -11.9070   -2.1670  -10.8160 O   0  0  0  0  0  0  0  0  0  0  0  0
  -11.6240   -0.2150   -9.5190 C   0  0  0  0  0  0  0  0  0  0  0  0
  -12.2630    0.6460  -10.5330 C   0  0  0  0  0  0  0  0  0  0  0  0
  -11.5010    1.0210  -11.6560 C   0  0  0  0  0  0  0  0  0  0  0  0
  -12.0350    1.8600  -12.6420 C   0  0  0  0  0  0  0  0  0  0  0  0
  -11.2110    2.1860  -13.7420 N   0  0  0  0  0  0  0  0  0  0  0  0
  -11.0240    3.4740  -14.2290 C   0  0  0  0  0  0  0  0  0  0  0  0
  -11.3550    4.4910  -13.6330 O   0  0  0  0  0  0  0  0  0  0  0  0
  -10.3680    3.4200  -15.4480 N   0  0  0  0  0  0  0  0  0  0  0  0
   -9.8760    4.5000  -16.2080 C   0  0  0  0  0  0  0  0  0  0  0  0
  -10.5340    5.7250  -16.3350 C   0  0  0  0  0  0  0  0  0  0  0  0
   -9.9720    6.7540  -17.0980 C   0  0  0  0  0  0  0  0  0  0  0  0
   -8.7480    6.5680  -17.7360 C   0  0  0  0  0  0  0  0  0  0  0  0
   -8.0810    5.3530  -17.6110 C   0  0  0  0  0  0  0  0  0  0  0  0
   -8.6420    4.3250  -16.8480 C   0  0  0  0  0  0  0  0  0  0  0  0
  -13.3640    2.2810  -12.5190 C   0  0  0  0  0  0  0  0  0  0  0  0
  -13.9660    2.9770  -13.4920 F   0  0  0  0  0  0  0  0  0  0  0  0
  -14.1360    1.9130  -11.4190 C   0  0  0  0  0  0  0  0  0  0  0  0
  -13.5880    1.1020  -10.4250 C   0  0  0  0  0  0  0  0  0  0  0  0
  -14.7080    0.6250   -8.9670 Br  0  0  0  0  0  0  0  0  0  0  0  0
  -11.1300    0.3430   -8.4040 C   0  0  0  0  0  0  0  0  0  0  0  0
  -10.5020   -0.4850   -7.3850 C   0  0  0  0  0  0  0  0  0  0  0  0
   -9.9770    0.0730   -6.2270 C   0  0  0  0  0  0  0  0  0  0  0  0
   -9.3770   -0.6360   -5.2470 N   0  0  0  0  0  0  0  0  0  0  0  0
   -9.2790   -1.9670   -5.4030 C   0  0  0  0  0  0  0  0  0  0  0  0
   -8.6900   -2.7620   -4.4040 N   0  0  0  0  0  0  0  0  0  0  0  0
   -9.3640   -2.7050   -3.1170 C   0  0  0  0  0  0  0  0  0  0  0  0
   -9.7950   -2.6090   -6.5310 C   0  0  0  0  0  0  0  0  0  0  0  0
  -10.4160   -1.8680   -7.5420 C   0  0  0  0  0  0  0  0  0  0  0  0
  -12.1950   -4.6413   -7.3919 H   0  0  0  0  0  0  0  0  0  0  0  0
  -13.0355   -4.0829   -8.8779 H   0  0  0  0  0  0  0  0  0  0  0  0
  -12.1570   -5.6497   -8.8779 H   0  0  0  0  0  0  0  0  0  0  0  0
  -10.0370   -4.3112   -8.3733 H   0  0  0  0  0  0  0  0  0  0  0  0
  -10.7692   -4.0834  -10.0205 H   0  0  0  0  0  0  0  0  0  0  0  0
  -10.4709    0.6495  -11.7604 H   0  0  0  0  0  0  0  0  0  0  0  0
  -10.4430    1.5610  -13.9380 H   0  0  0  0  0  0  0  0  0  0  0  0
  -10.4150    2.5280  -15.9180 H   0  0  0  0  0  0  0  0  0  0  0  0
  -11.4997    5.8818  -15.8322 H   0  0  0  0  0  0  0  0  0  0  0  0
  -10.4993    7.7146  -17.1945 H   0  0  0  0  0  0  0  0  0  0  0  0
   -8.3100    7.3787  -18.3367 H   0  0  0  0  0  0  0  0  0  0  0  0
   -7.1135    5.2018  -18.1121 H   0  0  0  0  0  0  0  0  0  0  0  0
   -8.1088    3.3680  -16.7489 H   0  0  0  0  0  0  0  0  0  0  0  0
  -15.1759    2.2614  -11.3345 H   0  0  0  0  0  0  0  0  0  0  0  0
  -11.1998    1.4312   -8.2590 H   0  0  0  0  0  0  0  0  0  0  0  0
  -10.0549    1.1628   -6.0998 H   0  0  0  0  0  0  0  0  0  0  0  0
   -7.7050   -2.5250   -4.3240 H   0  0  0  0  0  0  0  0  0  0  0  0
   -8.6192   -2.7680   -2.3099 H   0  0  0  0  0  0  0  0  0  0  0  0
   -9.9157   -1.7570   -3.0337 H   0  0  0  0  0  0  0  0  0  0  0  0
  -10.0670   -3.5469   -3.0337 H   0  0  0  0  0  0  0  0  0  0  0  0
   -9.7127   -3.7019   -6.6248 H   0  0  0  0  0  0  0  0  0  0  0  0
  1  2  1  0
  2  3  1  0
  3  4  1  0
  4  5  2  0
  4  6  1  0
  6  7  1  0
  7  8  1  0
  8  9  2  0
  9 10  1  0
 10 11  1  0
 11 12  2  0
 11 13  1  0
 13 14  1  0
 14 15  2  0
 15 16  1  0
 16 17  2  0
 17 18  1  0
 18 19  2  0
  9 20  1  0
 20 21  1  0
 20 22  2  0
 22 23  1  0
 23 24  1  0
  6 25  2  0
 25 26  1  0
 26 27  2  0
 27 28  1  0
 28 29  2  0
 29 30  1  0
 30 31  1  0
 29 32  1  0
 32 33  2  0
 33  3  1  0
 23  7  2  0
 33 26  1  0
 19 14  1  0
  1 34  1  0
  1 35  1  0
  1 36  1  0
  2 37  1  0
  2 38  1  0
  8 39  1  0
 10 40  1  0
 13 41  1  0
 15 42  1  0
 16 43  1  0
 17 44  1  0
 18 45  1  0
 19 46  1  0
 22 47  1  0
 25 48  1  0
 27 49  1  0
 30 50  1  0
 31 51  1  0
 31 52  1  0
 31 53  1  0
 32 54  1  0
M  END
>  <meeko>  (7) 
{"is_sidechain": false}

>  <vina_affinity_kcal_mol>  (7) 
-7.706

>  <pose_rank>  (7) 
7

$$$$

     RDKit          3D

 54 57  0  0  0  0  0  0  0  0999 V2000
   -1.5900   -2.0030  -17.6350 C   0  0  0  0  0  0  0  0  0  0  0  0
   -1.7030   -2.5740  -16.2290 C   0  0  0  0  0  0  0  0  0  0  0  0
   -3.0640   -3.0060  -15.9170 N   0  0  0  0  0  0  0  0  0  0  0  0
   -3.9120   -2.0670  -15.3230 C   0  0  0  0  0  0  0  0  0  0  0  0
   -3.5530   -0.9270  -15.0250 O   0  0  0  0  0  0  0  0  0  0  0  0
   -5.3200   -2.4930  -15.0330 C   0  0  0  0  0  0  0  0  0  0  0  0
   -6.2820   -1.5280  -14.4670 C   0  0  0  0  0  0  0  0  0  0  0  0
   -6.9360   -0.6490  -15.3510 C   0  0  0  0  0  0  0  0  0  0  0  0
   -7.8390    0.3100  -14.8780 C   0  0  0  0  0  0  0  0  0  0  0  0
   -8.4600    1.1520  -15.8280 N   0  0  0  0  0  0  0  0  0  0  0  0
   -8.2170    2.5140  -15.9500 C   0  0  0  0  0  0  0  0  0  0  0  0
   -7.2810    3.0970  -15.4180 O   0  0  0  0  0  0  0  0  0  0  0  0
   -9.1560    3.0810  -16.7960 N   0  0  0  0  0  0  0  0  0  0  0  0
   -9.1860    4.4030  -17.2830 C   0  0  0  0  0  0  0  0  0  0  0  0
   -8.5070    4.8270  -18.4260 C   0  0  0  0  0  0  0  0  0  0  0  0
   -8.5990    6.1550  -18.8540 C   0  0  0  0  0  0  0  0  0  0  0  0
   -9.3750    7.0690  -18.1440 C   0  0  0  0  0  0  0  0  0  0  0  0
  -10.0620    6.6560  -17.0070 C   0  0  0  0  0  0  0  0  0  0  0  0
   -9.9700    5.3280  -16.5800 C   0  0  0  0  0  0  0  0  0  0  0  0
   -8.1220    0.3500  -13.5080 C   0  0  0  0  0  0  0  0  0  0  0  0
   -9.0710    1.1580  -13.0170 F   0  0  0  0  0  0  0  0  0  0  0  0
   -7.4920   -0.5170  -12.6190 C   0  0  0  0  0  0  0  0  0  0  0  0
   -6.5710   -1.4510  -13.0930 C   0  0  0  0  0  0  0  0  0  0  0  0
   -5.7670   -2.6140  -11.8230 Br  0  0  0  0  0  0  0  0  0  0  0  0
   -5.7170   -3.7520  -15.2660 C   0  0  0  0  0  0  0  0  0  0  0  0
   -4.7890   -4.7220  -15.8300 C   0  0  0  0  0  0  0  0  0  0  0  0
   -5.1770   -6.0330  -16.0720 C   0  0  0  0  0  0  0  0  0  0  0  0
   -4.3660   -6.9820  -16.5870 N   0  0  0  0  0  0  0  0  0  0  0  0
   -3.1010   -6.6360  -16.8820 C   0  0  0  0  0  0  0  0  0  0  0  0
   -2.2180   -7.5730  -17.4470 N   0  0  0  0  0  0  0  0  0  0  0  0
   -1.1340   -6.9850  -18.2190 C   0  0  0  0  0  0  0  0  0  0  0  0
   -2.6350   -5.3340  -16.6840 C   0  0  0  0  0  0  0  0  0  0  0  0
   -3.4820   -4.3560  -16.1510 C   0  0  0  0  0  0  0  0  0  0  0  0
   -1.3767   -0.9254  -17.5771 H   0  0  0  0  0  0  0  0  0  0  0  0
   -0.7747   -2.5098  -18.1721 H   0  0  0  0  0  0  0  0  0  0  0  0
   -2.5368   -2.1611  -18.1721 H   0  0  0  0  0  0  0  0  0  0  0  0
   -1.0282   -3.4383  -16.1422 H   0  0  0  0  0  0  0  0  0  0  0  0
   -1.4292   -1.7799  -15.5187 H   0  0  0  0  0  0  0  0  0  0  0  0
   -6.7342   -0.7169  -16.4302 H   0  0  0  0  0  0  0  0  0  0  0  0
   -8.7800    0.7170  -16.6810 H   0  0  0  0  0  0  0  0  0  0  0  0
   -9.9970    2.5390  -16.9230 H   0  0  0  0  0  0  0  0  0  0  0  0
   -7.8949    4.1113  -18.9945 H   0  0  0  0  0  0  0  0  0  0  0  0
   -8.0568    6.4794  -19.7545 H   0  0  0  0  0  0  0  0  0  0  0  0
   -9.4441    8.1137  -18.4815 H   0  0  0  0  0  0  0  0  0  0  0  0
  -10.6771    7.3738  -16.4444 H   0  0  0  0  0  0  0  0  0  0  0  0
  -10.5187    5.0056  -15.6828 H   0  0  0  0  0  0  0  0  0  0  0  0
   -7.7204   -0.4653  -11.5442 H   0  0  0  0  0  0  0  0  0  0  0  0
   -6.7482   -4.0536  -15.0301 H   0  0  0  0  0  0  0  0  0  0  0  0
   -6.2115   -6.3168  -15.8286 H   0  0  0  0  0  0  0  0  0  0  0  0
   -2.7470   -8.2460  -17.9940 H   0  0  0  0  0  0  0  0  0  0  0  0
   -0.3771   -6.5744  -17.5345 H   0  0  0  0  0  0  0  0  0  0  0  0
   -0.6744   -7.7575  -18.8531 H   0  0  0  0  0  0  0  0  0  0  0  0
   -1.5309   -6.1785  -18.8531 H   0  0  0  0  0  0  0  0  0  0  0  0
   -1.5986   -5.0767  -16.9480 H   0  0  0  0  0  0  0  0  0  0  0  0
  1  2  1  0
  2  3  1  0
  3  4  1  0
  4  5  2  0
  4  6  1  0
  6  7  1  0
  7  8  1  0
  8  9  2  0
  9 10  1  0
 10 11  1  0
 11 12  2  0
 11 13  1  0
 13 14  1  0
 14 15  2  0
 15 16  1  0
 16 17  2  0
 17 18  1  0
 18 19  2  0
  9 20  1  0
 20 21  1  0
 20 22  2  0
 22 23  1  0
 23 24  1  0
  6 25  2  0
 25 26  1  0
 26 27  2  0
 27 28  1  0
 28 29  2  0
 29 30  1  0
 30 31  1  0
 29 32  1  0
 32 33  2  0
 33  3  1  0
 23  7  2  0
 33 26  1  0
 19 14  1  0
  1 34  1  0
  1 35  1  0
  1 36  1  0
  2 37  1  0
  2 38  1  0
  8 39  1  0
 10 40  1  0
 13 41  1  0
 15 42  1  0
 16 43  1  0
 17 44  1  0
 18 45  1  0
 19 46  1  0
 22 47  1  0
 25 48  1  0
 27 49  1  0
 30 50  1  0
 31 51  1  0
 31 52  1  0
 31 53  1  0
 32 54  1  0
M  END
>  <meeko>  (8) 
{"is_sidechain": false}

>  <vina_affinity_kcal_mol>  (8) 
-7.647

>  <pose_rank>  (8) 
8

$$$$

     RDKit          3D

 54 57  0  0  0  0  0  0  0  0999 V2000
  -13.3880    4.4970  -15.0110 C   0  0  0  0  0  0  0  0  0  0  0  0
  -12.0920    5.2850  -14.8890 C   0  0  0  0  0  0  0  0  0  0  0  0
  -10.9330    4.5160  -15.3400 N   0  0  0  0  0  0  0  0  0  0  0  0
  -10.4790    3.4940  -14.5020 C   0  0  0  0  0  0  0  0  0  0  0  0
  -10.9820    3.2470  -13.4050 O   0  0  0  0  0  0  0  0  0  0  0  0
   -9.3140    2.6780  -14.9760 C   0  0  0  0  0  0  0  0  0  0  0  0
   -8.8290    1.5430  -14.1670 C   0  0  0  0  0  0  0  0  0  0  0  0
   -9.7610    0.5660  -13.7710 C   0  0  0  0  0  0  0  0  0  0  0  0
   -9.3740   -0.5210  -12.9790 C   0  0  0  0  0  0  0  0  0  0  0  0
  -10.3660   -1.4650  -12.6280 N   0  0  0  0  0  0  0  0  0  0  0  0
  -10.9510   -1.5600  -11.3710 C   0  0  0  0  0  0  0  0  0  0  0  0
  -10.8530   -0.7060  -10.5000 O   0  0  0  0  0  0  0  0  0  0  0  0
  -11.6900   -2.7290  -11.2900 N   0  0  0  0  0  0  0  0  0  0  0  0
  -12.5370   -3.1380  -10.2410 C   0  0  0  0  0  0  0  0  0  0  0  0
  -13.6480   -2.4120   -9.8110 C   0  0  0  0  0  0  0  0  0  0  0  0
  -14.4500   -2.8940   -8.7700 C   0  0  0  0  0  0  0  0  0  0  0  0
  -14.1480   -4.1060   -8.1550 C   0  0  0  0  0  0  0  0  0  0  0  0
  -13.0450   -4.8410   -8.5800 C   0  0  0  0  0  0  0  0  0  0  0  0
  -12.2450   -4.3600   -9.6200 C   0  0  0  0  0  0  0  0  0  0  0  0
   -8.0260   -0.6490  -12.6250 C   0  0  0  0  0  0  0  0  0  0  0  0
   -7.5760   -1.7330  -11.9790 F   0  0  0  0  0  0  0  0  0  0  0  0
   -7.0870    0.3030  -13.0140 C   0  0  0  0  0  0  0  0  0  0  0  0
   -7.4850    1.4000  -13.7790 C   0  0  0  0  0  0  0  0  0  0  0  0
   -6.1440    2.6460  -14.2890 Br  0  0  0  0  0  0  0  0  0  0  0  0
   -8.6900    2.9760  -16.1250 C   0  0  0  0  0  0  0  0  0  0  0  0
   -9.1540    4.0860  -16.9450 C   0  0  0  0  0  0  0  0  0  0  0  0
   -8.5190    4.4170  -18.1340 C   0  0  0  0  0  0  0  0  0  0  0  0
   -8.8930    5.4360  -18.9380 N   0  0  0  0  0  0  0  0  0  0  0  0
   -9.9470    6.1790  -18.5600 C   0  0  0  0  0  0  0  0  0  0  0  0
  -10.4020    7.2360  -19.3690 N   0  0  0  0  0  0  0  0  0  0  0  0
  -10.0280    7.1230  -20.7690 C   0  0  0  0  0  0  0  0  0  0  0  0
  -10.6520    5.9040  -17.3870 C   0  0  0  0  0  0  0  0  0  0  0  0
  -10.2580    4.8460  -16.5600 C   0  0  0  0  0  0  0  0  0  0  0  0
  -13.7713    4.2639  -14.0066 H   0  0  0  0  0  0  0  0  0  0  0  0
  -14.1314    5.0961  -15.5573 H   0  0  0  0  0  0  0  0  0  0  0  0
  -13.1982    3.5613  -15.5573 H   0  0  0  0  0  0  0  0  0  0  0  0
  -12.1724    6.1958  -15.5005 H   0  0  0  0  0  0  0  0  0  0  0  0
  -11.9433    5.5277  -13.8265 H   0  0  0  0  0  0  0  0  0  0  0  0
  -10.8100    0.6580  -14.0889 H   0  0  0  0  0  0  0  0  0  0  0  0
  -10.9480   -1.8130  -13.3760 H   0  0  0  0  0  0  0  0  0  0  0  0
  -11.4480   -3.4340  -11.9700 H   0  0  0  0  0  0  0  0  0  0  0  0
  -13.8953   -1.4547  -10.2931 H   0  0  0  0  0  0  0  0  0  0  0  0
  -15.3224   -2.3129   -8.4365 H   0  0  0  0  0  0  0  0  0  0  0  0
  -14.7790   -4.4815   -7.3359 H   0  0  0  0  0  0  0  0  0  0  0  0
  -12.8032   -5.7996   -8.0977 H   0  0  0  0  0  0  0  0  0  0  0  0
  -11.3769   -4.9468   -9.9548 H   0  0  0  0  0  0  0  0  0  0  0  0
   -6.0334    0.1904  -12.7187 H   0  0  0  0  0  0  0  0  0  0  0  0
   -7.8244    2.3796  -16.4491 H   0  0  0  0  0  0  0  0  0  0  0  0
   -7.6548    3.8099  -18.4416 H   0  0  0  0  0  0  0  0  0  0  0  0
  -10.0980    8.1200  -18.9690 H   0  0  0  0  0  0  0  0  0  0  0  0
   -8.9774    6.8056  -20.8434 H   0  0  0  0  0  0  0  0  0  0  0  0
  -10.6715    6.3792  -21.2616 H   0  0  0  0  0  0  0  0  0  0  0  0
  -10.1520    8.0987  -21.2616 H   0  0  0  0  0  0  0  0  0  0  0  0
  -11.5201    6.5209  -17.1118 H   0  0  0  0  0  0  0  0  0  0  0  0
  1  2  1  0
  2  3  1  0
  3  4  1  0
  4  5  2  0
  4  6  1  0
  6  7  1  0
  7  8  1  0
  8  9  2  0
  9 10  1  0
 10 11  1  0
 11 12  2  0
 11 13  1  0
 13 14  1  0
 14 15  2  0
 15 16  1  0
 16 17  2  0
 17 18  1  0
 18 19  2  0
  9 20  1  0
 20 21  1  0
 20 22  2  0
 22 23  1  0
 23 24  1  0
  6 25  2  0
 25 26  1  0
 26 27  2  0
 27 28  1  0
 28 29  2  0
 29 30  1  0
 30 31  1  0
 29 32  1  0
 32 33  2  0
 33  3  1  0
 23  7  2  0
 33 26  1  0
 19 14  1  0
  1 34  1  0
  1 35  1  0
  1 36  1  0
  2 37  1  0
  2 38  1  0
  8 39  1  0
 10 40  1  0
 13 41  1  0
 15 42  1  0
 16 43  1  0
 17 44  1  0
 18 45  1  0
 19 46  1  0
 22 47  1  0
 25 48  1  0
 27 49  1  0
 30 50  1  0
 31 51  1  0
 31 52  1  0
 31 53  1  0
 32 54  1  0
M  END
>  <meeko>  (9) 
{"is_sidechain": false}

>  <vina_affinity_kcal_mol>  (9) 
-7.628

>  <pose_rank>  (9) 
9

$$$$

     RDKit          3D

 54 57  0  0  0  0  0  0  0  0999 V2000
   -5.1390   -3.4730  -14.8790 C   0  0  0  0  0  0  0  0  0  0  0  0
   -5.5690   -2.9210  -16.2300 C   0  0  0  0  0  0  0  0  0  0  0  0
   -5.4620   -1.4640  -16.2910 N   0  0  0  0  0  0  0  0  0  0  0  0
   -6.5680   -0.7230  -15.8670 C   0  0  0  0  0  0  0  0  0  0  0  0
   -7.6200   -1.2400  -15.4870 O   0  0  0  0  0  0  0  0  0  0  0  0
   -6.4520    0.7710  -15.8920 C   0  0  0  0  0  0  0  0  0  0  0  0
   -7.5620    1.6070  -15.3950 C   0  0  0  0  0  0  0  0  0  0  0  0
   -8.2140    2.4540  -16.3120 C   0  0  0  0  0  0  0  0  0  0  0  0
   -9.2550    3.2950  -15.9020 C   0  0  0  0  0  0  0  0  0  0  0  0
   -9.8640    4.1110  -16.8820 N   0  0  0  0  0  0  0  0  0  0  0  0
   -9.2560    5.2080  -17.4800 C   0  0  0  0  0  0  0  0  0  0  0  0
   -8.0600    5.4570  -17.4080 O   0  0  0  0  0  0  0  0  0  0  0  0
  -10.1970    5.9260  -18.2000 N   0  0  0  0  0  0  0  0  0  0  0  0
   -9.9720    7.0250  -19.0530 C   0  0  0  0  0  0  0  0  0  0  0  0
   -9.4350    8.2410  -18.6280 C   0  0  0  0  0  0  0  0  0  0  0  0
   -9.2280    9.2810  -19.5410 C   0  0  0  0  0  0  0  0  0  0  0  0
   -9.5530    9.1110  -20.8840 C   0  0  0  0  0  0  0  0  0  0  0  0
  -10.0830    7.9000  -21.3190 C   0  0  0  0  0  0  0  0  0  0  0  0
  -10.2890    6.8610  -20.4080 C   0  0  0  0  0  0  0  0  0  0  0  0
   -9.6740    3.2440  -14.5680 C   0  0  0  0  0  0  0  0  0  0  0  0
  -10.7470    3.9300  -14.1490 F   0  0  0  0  0  0  0  0  0  0  0  0
   -9.0470    2.4070  -13.6480 C   0  0  0  0  0  0  0  0  0  0  0  0
   -7.9910    1.5930  -14.0570 C   0  0  0  0  0  0  0  0  0  0  0  0
   -7.1990    0.4620  -12.7510 Br  0  0  0  0  0  0  0  0  0  0  0  0
   -5.3530    1.3640  -16.3800 C   0  0  0  0  0  0  0  0  0  0  0  0
   -4.2420    0.5620  -16.8710 C   0  0  0  0  0  0  0  0  0  0  0  0
   -3.0980    1.1550  -17.3860 C   0  0  0  0  0  0  0  0  0  0  0  0
   -2.0350    0.4710  -17.8620 N   0  0  0  0  0  0  0  0  0  0  0  0
   -2.0900   -0.8720  -17.8370 C   0  0  0  0  0  0  0  0  0  0  0  0
   -1.0040   -1.6400  -18.2920 N   0  0  0  0  0  0  0  0  0  0  0  0
   -0.6400   -1.4010  -19.6800 C   0  0  0  0  0  0  0  0  0  0  0  0
   -3.1970   -1.5480  -17.3200 C   0  0  0  0  0  0  0  0  0  0  0  0
   -4.2940   -0.8320  -16.8280 C   0  0  0  0  0  0  0  0  0  0  0  0
   -5.6013   -2.8795  -14.0765 H   0  0  0  0  0  0  0  0  0  0  0  0
   -5.4609   -4.5212  -14.7919 H   0  0  0  0  0  0  0  0  0  0  0  0
   -4.0439   -3.4173  -14.7919 H   0  0  0  0  0  0  0  0  0  0  0  0
   -4.9279   -3.3562  -17.0108 H   0  0  0  0  0  0  0  0  0  0  0  0
   -6.6248   -3.1887  -16.3835 H   0  0  0  0  0  0  0  0  0  0  0  0
   -7.9004    2.4546  -17.3664 H   0  0  0  0  0  0  0  0  0  0  0  0
  -10.5820    3.6830  -17.4480 H   0  0  0  0  0  0  0  0  0  0  0  0
  -11.1560    5.7540  -17.9370 H   0  0  0  0  0  0  0  0  0  0  0  0
   -9.1729    8.3827  -17.5691 H   0  0  0  0  0  0  0  0  0  0  0  0
   -8.8067   10.2368  -19.1962 H   0  0  0  0  0  0  0  0  0  0  0  0
   -9.3914    9.9312  -21.5989 H   0  0  0  0  0  0  0  0  0  0  0  0
  -10.3396    7.7609  -22.3796 H   0  0  0  0  0  0  0  0  0  0  0  0
  -10.7043    5.9044  -20.7580 H   0  0  0  0  0  0  0  0  0  0  0  0
   -9.3840    2.3881  -12.6011 H   0  0  0  0  0  0  0  0  0  0  0  0
   -5.2907    2.4618  -16.4094 H   0  0  0  0  0  0  0  0  0  0  0  0
   -3.0540    2.2539  -17.4080 H   0  0  0  0  0  0  0  0  0  0  0  0
   -1.1900   -2.6230  -18.1170 H   0  0  0  0  0  0  0  0  0  0  0  0
    0.2789   -0.7976  -19.7194 H   0  0  0  0  0  0  0  0  0  0  0  0
   -0.4689   -2.3631  -20.1851 H   0  0  0  0  0  0  0  0  0  0  0  0
   -1.4548   -0.8615  -20.1851 H   0  0  0  0  0  0  0  0  0  0  0  0
   -3.2068   -2.6478  -17.2994 H   0  0  0  0  0  0  0  0  0  0  0  0
  1  2  1  0
  2  3  1  0
  3  4  1  0
  4  5  2  0
  4  6  1  0
  6  7  1  0
  7  8  1  0
  8  9  2  0
  9 10  1  0
 10 11  1  0
 11 12  2  0
 11 13  1  0
 13 14  1  0
 14 15  2  0
 15 16  1  0
 16 17  2  0
 17 18  1  0
 18 19  2  0
  9 20  1  0
 20 21  1  0
 20 22  2  0
 22 23  1  0
 23 24  1  0
  6 25  2  0
 25 26  1  0
 26 27  2  0
 27 28  1  0
 28 29  2  0
 29 30  1  0
 30 31  1  0
 29 32  1  0
 32 33  2  0
 33  3  1  0
 23  7  2  0
 33 26  1  0
 19 14  1  0
  1 34  1  0
  1 35  1  0
  1 36  1  0
  2 37  1  0
  2 38  1  0
  8 39  1  0
 10 40  1  0
 13 41  1  0
 15 42  1  0
 16 43  1  0
 17 44  1  0
 18 45  1  0
 19 46  1  0
 22 47  1  0
 25 48  1  0
 27 49  1  0
 30 50  1  0
 31 51  1  0
 31 52  1  0
 31 53  1  0
 32 54  1  0
M  END
>  <meeko>  (10) 
{"is_sidechain": false}

>  <vina_affinity_kcal_mol>  (10) 
-3.818

>  <pose_rank>  (10) 
10

$$$$
