
     RDKit          3D

 49 52  0  0  0  0  0  0  0  0999 V2000
    7.7165    0.8270    1.3734 C   0  0  0  0  0  0  0  0  0  0  0  0
    6.8852   -0.2543    0.9627 O   0  0  0  0  0  0  0  0  0  0  0  0
    5.6624    0.0439    0.4136 C   0  0  0  0  0  0  0  0  0  0  0  0
    5.1995    1.3583    0.2366 C   0  0  0  0  0  0  0  0  0  0  0  0
    3.9582    1.6481   -0.3169 C   0  0  0  0  0  0  0  0  0  0  0  0
    3.5963    2.9359   -0.4503 N   0  0  0  0  0  0  0  0  0  0  0  0
    2.3952    3.2140   -1.0025 C   0  0  0  0  0  0  0  0  0  0  0  0
    1.5072    2.2510   -1.4283 C   0  0  0  0  0  0  0  0  0  0  0  0
    1.8782    0.9206   -1.2621 C   0  0  0  0  0  0  0  0  0  0  0  0
    1.0470   -0.0898   -1.7017 O   0  0  0  0  0  0  0  0  0  0  0  0
   -0.2174   -0.1317   -1.1585 C   0  0  0  0  0  0  0  0  0  0  0  0
   -1.2726   -0.3715   -2.0365 C   0  0  0  0  0  0  0  0  0  0  0  0
   -2.5850   -0.4541   -1.5579 C   0  0  0  0  0  0  0  0  0  0  0  0
   -2.8522   -0.3184   -0.1929 C   0  0  0  0  0  0  0  0  0  0  0  0
   -4.1556   -0.3856    0.3528 N   0  0  0  0  0  0  0  0  0  0  0  0
   -5.3367   -0.6805   -0.2941 C   0  0  0  0  0  0  0  0  0  0  0  0
   -5.4619   -0.9931   -1.4713 O   0  0  0  0  0  0  0  0  0  0  0  0
   -6.4114   -0.5973    0.5778 N   0  0  0  0  0  0  0  0  0  0  0  0
   -7.7547   -0.8151    0.1343 C   0  0  0  0  0  0  0  0  0  0  0  0
   -8.6856    0.3447   -0.0867 C   0  0  0  0  0  0  0  0  0  0  0  0
   -8.9146   -0.5889    1.0655 C   0  0  0  0  0  0  0  0  0  0  0  0
   -1.7707   -0.0971    0.6831 C   0  0  0  0  0  0  0  0  0  0  0  0
   -2.0300    0.0774    2.3881 Cl  0  0  0  0  0  0  0  0  0  0  0  0
   -0.4594   -0.0112    0.2090 C   0  0  0  0  0  0  0  0  0  0  0  0
    3.1320    0.5849   -0.7153 C   0  0  0  0  0  0  0  0  0  0  0  0
    3.5822   -0.7409   -0.5455 C   0  0  0  0  0  0  0  0  0  0  0  0
    4.8392   -1.0239    0.0148 C   0  0  0  0  0  0  0  0  0  0  0  0
    5.1899   -2.4745    0.1414 C   0  0  0  0  0  0  0  0  0  0  0  0
    6.4260   -2.8081    0.6080 N   0  0  0  0  0  0  0  0  0  0  0  0
    4.3939   -3.3558   -0.1647 O   0  0  0  0  0  0  0  0  0  0  0  0
    7.2395    1.4122    2.1663 H   0  0  0  0  0  0  0  0  0  0  0  0
    7.9935    1.4568    0.5218 H   0  0  0  0  0  0  0  0  0  0  0  0
    8.6369    0.4005    1.7838 H   0  0  0  0  0  0  0  0  0  0  0  0
    5.8020    2.2135    0.5290 H   0  0  0  0  0  0  0  0  0  0  0  0
    2.1644    4.2714   -1.0991 H   0  0  0  0  0  0  0  0  0  0  0  0
    0.5624    2.5287   -1.8799 H   0  0  0  0  0  0  0  0  0  0  0  0
   -1.0804   -0.4925   -3.1002 H   0  0  0  0  0  0  0  0  0  0  0  0
   -3.3760   -0.6296   -2.2810 H   0  0  0  0  0  0  0  0  0  0  0  0
   -4.2009   -0.3148    1.3606 H   0  0  0  0  0  0  0  0  0  0  0  0
   -6.2850   -0.0238    1.3992 H   0  0  0  0  0  0  0  0  0  0  0  0
   -7.8459   -1.6552   -0.5527 H   0  0  0  0  0  0  0  0  0  0  0  0
   -8.3256    1.3441    0.1251 H   0  0  0  0  0  0  0  0  0  0  0  0
   -9.3598    0.2886   -0.9339 H   0  0  0  0  0  0  0  0  0  0  0  0
   -9.7505   -1.2767    1.0028 H   0  0  0  0  0  0  0  0  0  0  0  0
   -8.7204   -0.2202    2.0651 H   0  0  0  0  0  0  0  0  0  0  0  0
    0.3612    0.1369    0.9047 H   0  0  0  0  0  0  0  0  0  0  0  0
    2.9410   -1.5664   -0.8561 H   0  0  0  0  0  0  0  0  0  0  0  0
    7.0887   -2.1017    0.9044 H   0  0  0  0  0  0  0  0  0  0  0  0
    6.6535   -3.7860    0.7172 H   0  0  0  0  0  0  0  0  0  0  0  0
  1  2  1  0
  2  3  1  0
  3  4  1  0
  4  5  2  0
  5  6  1  0
  6  7  2  0
  7  8  1  0
  8  9  2  0
  9 10  1  0
 10 11  1  0
 11 12  1  0
 12 13  2  0
 13 14  1  0
 14 15  1  0
 15 16  1  0
 16 17  2  0
 16 18  1  0
 18 19  1  0
 19 20  1  0
 20 21  1  0
 14 22  2  0
 22 23  1  0
 22 24  1  0
  9 25  1  0
 25 26  2  0
 26 27  1  0
 27 28  1  0
 28 29  1  0
 28 30  2  0
 27  3  2  0
 25  5  1  0
 24 11  2  0
 21 19  1  0
  1 31  1  0
  1 32  1  0
  1 33  1  0
  4 34  1  0
  7 35  1  0
  8 36  1  0
 12 37  1  0
 13 38  1  0
 15 39  1  0
 18 40  1  0
 19 41  1  0
 20 42  1  0
 20 43  1  0
 21 44  1  0
 21 45  1  0
 24 46  1  0
 26 47  1  0
 29 48  1  0
 29 49  1  0
M  END
$$$$
