
     RDKit          3D

 49 52  0  0  0  0  0  0  0  0999 V2000
  -14.8750    1.3040   -9.2940 C   0  0  0  0  0  0  0  0  0  0  0  0
  -14.6180    0.7300  -10.5730 O   0  0  0  0  0  0  0  0  0  0  0  0
  -13.5490    1.2050  -11.2910 C   0  0  0  0  0  0  0  0  0  0  0  0
  -13.6640    2.2090  -12.2660 C   0  0  0  0  0  0  0  0  0  0  0  0
  -12.5750    2.6800  -12.9900 C   0  0  0  0  0  0  0  0  0  0  0  0
  -12.7760    3.6450  -13.9040 N   0  0  0  0  0  0  0  0  0  0  0  0
  -11.7130    4.1110  -14.5950 C   0  0  0  0  0  0  0  0  0  0  0  0
  -10.4280    3.6440  -14.4280 C   0  0  0  0  0  0  0  0  0  0  0  0
  -10.2330    2.6270  -13.5000 C   0  0  0  0  0  0  0  0  0  0  0  0
   -8.9620    2.1420  -13.2610 O   0  0  0  0  0  0  0  0  0  0  0  0
   -8.1510    1.9650  -14.3590 C   0  0  0  0  0  0  0  0  0  0  0  0
   -8.2860    0.7630  -15.0540 C   0  0  0  0  0  0  0  0  0  0  0  0
   -7.5150    0.5180  -16.1950 C   0  0  0  0  0  0  0  0  0  0  0  0
   -6.6170    1.4800  -16.6660 C   0  0  0  0  0  0  0  0  0  0  0  0
   -5.8070    1.2910  -17.8110 N   0  0  0  0  0  0  0  0  0  0  0  0
   -4.5590    0.7090  -17.8850 C   0  0  0  0  0  0  0  0  0  0  0  0
   -3.9410    0.1950  -16.9620 O   0  0  0  0  0  0  0  0  0  0  0  0
   -4.0690    0.7570  -19.1810 N   0  0  0  0  0  0  0  0  0  0  0  0
   -2.7690    0.2560  -19.5090 C   0  0  0  0  0  0  0  0  0  0  0  0
   -1.5470    1.1100  -19.3100 C   0  0  0  0  0  0  0  0  0  0  0  0
   -2.0200    0.7910  -20.6980 C   0  0  0  0  0  0  0  0  0  0  0  0
   -6.5100    2.6970  -15.9640 C   0  0  0  0  0  0  0  0  0  0  0  0
   -5.4190    3.9350  -16.4950 Cl  0  0  0  0  0  0  0  0  0  0  0  0
   -7.2750    2.9450  -14.8210 C   0  0  0  0  0  0  0  0  0  0  0  0
  -11.3080    2.1300  -12.7380 C   0  0  0  0  0  0  0  0  0  0  0  0
  -11.1750    1.1210  -11.7610 C   0  0  0  0  0  0  0  0  0  0  0  0
  -12.2820    0.6520  -11.0340 C   0  0  0  0  0  0  0  0  0  0  0  0
  -12.0000   -0.4240  -10.0300 C   0  0  0  0  0  0  0  0  0  0  0  0
  -12.7340   -1.5710  -10.0810 N   0  0  0  0  0  0  0  0  0  0  0  0
  -11.1310   -0.2910   -9.1750 O   0  0  0  0  0  0  0  0  0  0  0  0
  -14.5608    0.6023   -8.5073 H   0  0  0  0  0  0  0  0  0  0  0  0
  -14.3115    2.2434   -9.1938 H   0  0  0  0  0  0  0  0  0  0  0  0
  -15.9510    1.5094   -9.1938 H   0  0  0  0  0  0  0  0  0  0  0  0
  -14.6562    2.6402  -12.4649 H   0  0  0  0  0  0  0  0  0  0  0  0
  -11.8832    4.9087  -15.3330 H   0  0  0  0  0  0  0  0  0  0  0  0
   -9.5892    4.0592  -15.0059 H   0  0  0  0  0  0  0  0  0  0  0  0
   -9.0017    0.0048  -14.7033 H   0  0  0  0  0  0  0  0  0  0  0  0
   -7.6162   -0.4399  -16.7262 H   0  0  0  0  0  0  0  0  0  0  0  0
   -6.2520    1.5150  -18.6910 H   0  0  0  0  0  0  0  0  0  0  0  0
   -4.4550    1.4670  -19.7850 H   0  0  0  0  0  0  0  0  0  0  0  0
   -3.0844   -0.7426  -19.1724 H   0  0  0  0  0  0  0  0  0  0  0  0
   -1.6486    2.1319  -18.9158 H   0  0  0  0  0  0  0  0  0  0  0  0
   -0.5978    0.9944  -18.7663 H   0  0  0  0  0  0  0  0  0  0  0  0
   -2.4681    1.5792  -21.3209 H   0  0  0  0  0  0  0  0  0  0  0  0
   -1.5607    0.3449  -21.5924 H   0  0  0  0  0  0  0  0  0  0  0  0
   -7.1863    3.9049  -14.2911 H   0  0  0  0  0  0  0  0  0  0  0  0
  -10.1817    0.6916  -11.5639 H   0  0  0  0  0  0  0  0  0  0  0  0
  -13.4300   -1.7230  -10.8000 H   0  0  0  0  0  0  0  0  0  0  0  0
  -12.5260   -2.3060   -9.4210 H   0  0  0  0  0  0  0  0  0  0  0  0
  1  2  1  0
  2  3  1  0
  3  4  1  0
  4  5  2  0
  5  6  1  0
  6  7  2  0
  7  8  1  0
  8  9  2  0
  9 10  1  0
 10 11  1  0
 11 12  1  0
 12 13  2  0
 13 14  1  0
 14 15  1  0
 15 16  1  0
 16 17  2  0
 16 18  1  0
 18 19  1  0
 19 20  1  0
 20 21  1  0
 14 22  2  0
 22 23  1  0
 22 24  1  0
  9 25  1  0
 25 26  2  0
 26 27  1  0
 27 28  1  0
 28 29  1  0
 28 30  2  0
 27  3  2  0
 25  5  1  0
 24 11  2  0
 21 19  1  0
  1 31  1  0
  1 32  1  0
  1 33  1  0
  4 34  1  0
  7 35  1  0
  8 36  1  0
 12 37  1  0
 13 38  1  0
 15 39  1  0
 18 40  1  0
 19 41  1  0
 20 42  1  0
 20 43  1  0
 21 44  1  0
 21 45  1  0
 24 46  1  0
 26 47  1  0
 29 48  1  0
 29 49  1  0
M  END
>  <meeko>  (1) 
{"is_sidechain": false}

>  <vina_affinity_kcal_mol>  (1) 
-8.216

>  <pose_rank>  (1) 
1

$$$$

     RDKit          3D

 49 52  0  0  0  0  0  0  0  0999 V2000
  -13.6570    2.2520  -11.9120 C   0  0  0  0  0  0  0  0  0  0  0  0
  -12.2380    2.1420  -11.9510 O   0  0  0  0  0  0  0  0  0  0  0  0
  -11.5930    2.5080  -13.1080 C   0  0  0  0  0  0  0  0  0  0  0  0
  -11.7280    3.7770  -13.6930 C   0  0  0  0  0  0  0  0  0  0  0  0
  -11.0730    4.1350  -14.8660 C   0  0  0  0  0  0  0  0  0  0  0  0
  -11.2600    5.3730  -15.3560 N   0  0  0  0  0  0  0  0  0  0  0  0
  -10.6100    5.7230  -16.4880 C   0  0  0  0  0  0  0  0  0  0  0  0
   -9.7740    4.8770  -17.1820 C   0  0  0  0  0  0  0  0  0  0  0  0
   -9.6070    3.5900  -16.6830 C   0  0  0  0  0  0  0  0  0  0  0  0
   -8.7530    2.7080  -17.3130 O   0  0  0  0  0  0  0  0  0  0  0  0
   -7.7600    2.1490  -16.5400 C   0  0  0  0  0  0  0  0  0  0  0  0
   -7.0390    3.0160  -15.7190 C   0  0  0  0  0  0  0  0  0  0  0  0
   -6.0310    2.5220  -14.8850 C   0  0  0  0  0  0  0  0  0  0  0  0
   -5.7470    1.1540  -14.8470 C   0  0  0  0  0  0  0  0  0  0  0  0
   -4.7370    0.5930  -14.0290 N   0  0  0  0  0  0  0  0  0  0  0  0
   -4.8860   -0.1190  -12.8590 C   0  0  0  0  0  0  0  0  0  0  0  0
   -5.9440   -0.4450  -12.3360 O   0  0  0  0  0  0  0  0  0  0  0  0
   -3.6510   -0.4570  -12.3270 N   0  0  0  0  0  0  0  0  0  0  0  0
   -3.5380   -1.1620  -11.0850 C   0  0  0  0  0  0  0  0  0  0  0  0
   -3.6190   -0.4260   -9.7760 C   0  0  0  0  0  0  0  0  0  0  0  0
   -2.3120   -1.0100  -10.2270 C   0  0  0  0  0  0  0  0  0  0  0  0
   -6.4990    0.2910  -15.6680 C   0  0  0  0  0  0  0  0  0  0  0  0
   -6.2030   -1.4170  -15.6680 Cl  0  0  0  0  0  0  0  0  0  0  0  0
   -7.5060    0.7800  -16.5050 C   0  0  0  0  0  0  0  0  0  0  0  0
  -10.2440    3.1910  -15.4910 C   0  0  0  0  0  0  0  0  0  0  0  0
  -10.0970    1.9120  -14.9160 C   0  0  0  0  0  0  0  0  0  0  0  0
  -10.7620    1.5590  -13.7290 C   0  0  0  0  0  0  0  0  0  0  0  0
  -10.5200    0.1680  -13.2300 C   0  0  0  0  0  0  0  0  0  0  0  0
  -10.4320   -0.0350  -11.8850 N   0  0  0  0  0  0  0  0  0  0  0  0
  -10.4010   -0.7790  -14.0000 O   0  0  0  0  0  0  0  0  0  0  0  0
  -13.9941    2.2781  -10.8653 H   0  0  0  0  0  0  0  0  0  0  0  0
  -13.9672    3.1769  -12.4203 H   0  0  0  0  0  0  0  0  0  0  0  0
  -14.1060    1.3860  -12.4203 H   0  0  0  0  0  0  0  0  0  0  0  0
  -12.3779    4.5176  -13.2039 H   0  0  0  0  0  0  0  0  0  0  0  0
  -10.7571    6.7413  -16.8770 H   0  0  0  0  0  0  0  0  0  0  0  0
   -9.2582    5.2067  -18.0959 H   0  0  0  0  0  0  0  0  0  0  0  0
   -7.2642    4.0927  -15.7276 H   0  0  0  0  0  0  0  0  0  0  0  0
   -5.4568    3.2159  -14.2536 H   0  0  0  0  0  0  0  0  0  0  0  0
   -3.8040    0.6320  -14.4170 H   0  0  0  0  0  0  0  0  0  0  0  0
   -2.8670    0.1140  -12.6050 H   0  0  0  0  0  0  0  0  0  0  0  0
   -4.0732   -2.0111  -11.5351 H   0  0  0  0  0  0  0  0  0  0  0  0
   -3.7596    0.6649   -9.7664 H   0  0  0  0  0  0  0  0  0  0  0  0
   -4.2390   -0.5141   -8.8717 H   0  0  0  0  0  0  0  0  0  0  0  0
   -1.4951   -0.3469  -10.5479 H   0  0  0  0  0  0  0  0  0  0  0  0
   -1.5781   -1.7031   -9.7900 H   0  0  0  0  0  0  0  0  0  0  0  0
   -8.0922    0.0903  -17.1300 H   0  0  0  0  0  0  0  0  0  0  0  0
   -9.4469    1.1734  -15.4077 H   0  0  0  0  0  0  0  0  0  0  0  0
  -10.5640    0.7210  -11.2250 H   0  0  0  0  0  0  0  0  0  0  0  0
  -10.2940   -0.9770  -11.5470 H   0  0  0  0  0  0  0  0  0  0  0  0
  1  2  1  0
  2  3  1  0
  3  4  1  0
  4  5  2  0
  5  6  1  0
  6  7  2  0
  7  8  1  0
  8  9  2  0
  9 10  1  0
 10 11  1  0
 11 12  1  0
 12 13  2  0
 13 14  1  0
 14 15  1  0
 15 16  1  0
 16 17  2  0
 16 18  1  0
 18 19  1  0
 19 20  1  0
 20 21  1  0
 14 22  2  0
 22 23  1  0
 22 24  1  0
  9 25  1  0
 25 26  2  0
 26 27  1  0
 27 28  1  0
 28 29  1  0
 28 30  2  0
 27  3  2  0
 25  5  1  0
 24 11  2  0
 21 19  1  0
  1 31  1  0
  1 32  1  0
  1 33  1  0
  4 34  1  0
  7 35  1  0
  8 36  1  0
 12 37  1  0
 13 38  1  0
 15 39  1  0
 18 40  1  0
 19 41  1  0
 20 42  1  0
 20 43  1  0
 21 44  1  0
 21 45  1  0
 24 46  1  0
 26 47  1  0
 29 48  1  0
 29 49  1  0
M  END
>  <meeko>  (2) 
{"is_sidechain": false}

>  <vina_affinity_kcal_mol>  (2) 
-7.967

>  <pose_rank>  (2) 
2

$$$$

     RDKit          3D

 49 52  0  0  0  0  0  0  0  0999 V2000
   -7.0940    4.5250  -18.0990 C   0  0  0  0  0  0  0  0  0  0  0  0
   -8.4970    4.2810  -18.0790 O   0  0  0  0  0  0  0  0  0  0  0  0
   -9.0370    3.7020  -16.9570 C   0  0  0  0  0  0  0  0  0  0  0  0
   -8.7030    2.4080  -16.5260 C   0  0  0  0  0  0  0  0  0  0  0  0
   -9.2580    1.8300  -15.3900 C   0  0  0  0  0  0  0  0  0  0  0  0
   -8.8800    0.5850  -15.0490 N   0  0  0  0  0  0  0  0  0  0  0  0
   -9.4100    0.0330  -13.9360 C   0  0  0  0  0  0  0  0  0  0  0  0
  -10.3320    0.6660  -13.1320 C   0  0  0  0  0  0  0  0  0  0  0  0
  -10.7380    1.9420  -13.5070 C   0  0  0  0  0  0  0  0  0  0  0  0
  -11.6320    2.6430  -12.7220 O   0  0  0  0  0  0  0  0  0  0  0  0
  -12.4000    1.9050  -11.8500 C   0  0  0  0  0  0  0  0  0  0  0  0
  -13.7640    2.1920  -11.8150 C   0  0  0  0  0  0  0  0  0  0  0  0
  -14.6160    1.4690  -10.9730 C   0  0  0  0  0  0  0  0  0  0  0  0
  -14.1160    0.4370  -10.1740 C   0  0  0  0  0  0  0  0  0  0  0  0
  -14.9240   -0.3280   -9.2990 N   0  0  0  0  0  0  0  0  0  0  0  0
  -15.5110    0.0680   -8.1160 C   0  0  0  0  0  0  0  0  0  0  0  0
  -15.4790    1.1910   -7.6290 O   0  0  0  0  0  0  0  0  0  0  0  0
  -16.1860   -0.9880   -7.5230 N   0  0  0  0  0  0  0  0  0  0  0  0
  -16.8420   -0.8410   -6.2590 C   0  0  0  0  0  0  0  0  0  0  0  0
  -17.4030   -2.0400   -5.5440 C   0  0  0  0  0  0  0  0  0  0  0  0
  -18.3310   -1.0250   -6.1440 C   0  0  0  0  0  0  0  0  0  0  0  0
  -12.7390    0.1470  -10.2380 C   0  0  0  0  0  0  0  0  0  0  0  0
  -12.0530   -1.1220   -9.2760 Cl  0  0  0  0  0  0  0  0  0  0  0  0
  -11.8840    0.8690  -11.0740 C   0  0  0  0  0  0  0  0  0  0  0  0
  -10.1910    2.5680  -14.6440 C   0  0  0  0  0  0  0  0  0  0  0  0
  -10.5370    3.8690  -15.0640 C   0  0  0  0  0  0  0  0  0  0  0  0
   -9.9700    4.4450  -16.2130 C   0  0  0  0  0  0  0  0  0  0  0  0
  -10.4280    5.8320  -16.5470 C   0  0  0  0  0  0  0  0  0  0  0  0
   -9.4890    6.7760  -16.8380 N   0  0  0  0  0  0  0  0  0  0  0  0
  -11.6180    6.1280  -16.5620 O   0  0  0  0  0  0  0  0  0  0  0  0
   -6.7184    4.5903  -17.0672 H   0  0  0  0  0  0  0  0  0  0  0  0
   -6.5861    3.7017  -18.6226 H   0  0  0  0  0  0  0  0  0  0  0  0
   -6.8939    5.4714  -18.6226 H   0  0  0  0  0  0  0  0  0  0  0  0
   -7.9732    1.8286  -17.1105 H   0  0  0  0  0  0  0  0  0  0  0  0
   -9.0867   -0.9803  -13.6555 H   0  0  0  0  0  0  0  0  0  0  0  0
  -10.7314    0.1813  -12.2289 H   0  0  0  0  0  0  0  0  0  0  0  0
  -14.1721    2.9904  -12.4522 H   0  0  0  0  0  0  0  0  0  0  0  0
  -15.6877    1.7147  -10.9396 H   0  0  0  0  0  0  0  0  0  0  0  0
  -15.1860   -1.2400   -9.6480 H   0  0  0  0  0  0  0  0  0  0  0  0
  -15.8920   -1.9170   -7.7840 H   0  0  0  0  0  0  0  0  0  0  0  0
  -16.1336   -0.0404   -5.9995 H   0  0  0  0  0  0  0  0  0  0  0  0
  -17.3158   -3.0395   -5.9950 H   0  0  0  0  0  0  0  0  0  0  0  0
  -17.2736   -2.4795   -4.5439 H   0  0  0  0  0  0  0  0  0  0  0  0
  -18.9238   -1.2807   -7.0346 H   0  0  0  0  0  0  0  0  0  0  0  0
  -19.1630   -0.4129   -5.7656 H   0  0  0  0  0  0  0  0  0  0  0  0
  -10.8131    0.6220  -11.1193 H   0  0  0  0  0  0  0  0  0  0  0  0
  -11.2677    4.4461  -14.4784 H   0  0  0  0  0  0  0  0  0  0  0  0
   -8.5030    6.5500  -16.8700 H   0  0  0  0  0  0  0  0  0  0  0  0
   -9.8000    7.7040  -17.0880 H   0  0  0  0  0  0  0  0  0  0  0  0
  1  2  1  0
  2  3  1  0
  3  4  1  0
  4  5  2  0
  5  6  1  0
  6  7  2  0
  7  8  1  0
  8  9  2  0
  9 10  1  0
 10 11  1  0
 11 12  1  0
 12 13  2  0
 13 14  1  0
 14 15  1  0
 15 16  1  0
 16 17  2  0
 16 18  1  0
 18 19  1  0
 19 20  1  0
 20 21  1  0
 14 22  2  0
 22 23  1  0
 22 24  1  0
  9 25  1  0
 25 26  2  0
 26 27  1  0
 27 28  1  0
 28 29  1  0
 28 30  2  0
 27  3  2  0
 25  5  1  0
 24 11  2  0
 21 19  1  0
  1 31  1  0
  1 32  1  0
  1 33  1  0
  4 34  1  0
  7 35  1  0
  8 36  1  0
 12 37  1  0
 13 38  1  0
 15 39  1  0
 18 40  1  0
 19 41  1  0
 20 42  1  0
 20 43  1  0
 21 44  1  0
 21 45  1  0
 24 46  1  0
 26 47  1  0
 29 48  1  0
 29 49  1  0
M  END
>  <meeko>  (3) 
{"is_sidechain": false}

>  <vina_affinity_kcal_mol>  (3) 
-7.911

>  <pose_rank>  (3) 
3

$$$$

     RDKit          3D

 49 52  0  0  0  0  0  0  0  0999 V2000
   -0.8820   -2.8200  -17.4720 C   0  0  0  0  0  0  0  0  0  0  0  0
   -1.8710   -1.9570  -18.0240 O   0  0  0  0  0  0  0  0  0  0  0  0
   -2.7620   -1.3620  -17.1640 C   0  0  0  0  0  0  0  0  0  0  0  0
   -3.7060   -2.0840  -16.4170 C   0  0  0  0  0  0  0  0  0  0  0  0
   -4.6060   -1.4710  -15.5520 C   0  0  0  0  0  0  0  0  0  0  0  0
   -5.4760   -2.2400  -14.8760 N   0  0  0  0  0  0  0  0  0  0  0  0
   -6.3380   -1.6420  -14.0240 C   0  0  0  0  0  0  0  0  0  0  0  0
   -6.3900   -0.2820  -13.8180 C   0  0  0  0  0  0  0  0  0  0  0  0
   -5.5040    0.5090  -14.5420 C   0  0  0  0  0  0  0  0  0  0  0  0
   -5.4810    1.8760  -14.3520 O   0  0  0  0  0  0  0  0  0  0  0  0
   -6.0960    2.6450  -15.3150 C   0  0  0  0  0  0  0  0  0  0  0  0
   -5.2730    3.4710  -16.0800 C   0  0  0  0  0  0  0  0  0  0  0  0
   -5.8190    4.2640  -17.0960 C   0  0  0  0  0  0  0  0  0  0  0  0
   -7.1890    4.2240  -17.3690 C   0  0  0  0  0  0  0  0  0  0  0  0
   -7.8010    5.0040  -18.3780 N   0  0  0  0  0  0  0  0  0  0  0  0
   -8.5700    6.1390  -18.2300 C   0  0  0  0  0  0  0  0  0  0  0  0
   -8.8200    6.7140  -17.1790 O   0  0  0  0  0  0  0  0  0  0  0  0
   -9.0320    6.5850  -19.4580 N   0  0  0  0  0  0  0  0  0  0  0  0
   -9.8920    7.7260  -19.5650 C   0  0  0  0  0  0  0  0  0  0  0  0
  -10.3050    8.2490  -20.9120 C   0  0  0  0  0  0  0  0  0  0  0  0
   -9.3590    9.0430  -20.0600 C   0  0  0  0  0  0  0  0  0  0  0  0
   -8.0010    3.3680  -16.6000 C   0  0  0  0  0  0  0  0  0  0  0  0
   -9.7070    3.2660  -16.8880 Cl  0  0  0  0  0  0  0  0  0  0  0  0
   -7.4620    2.5760  -15.5820 C   0  0  0  0  0  0  0  0  0  0  0  0
   -4.5700   -0.0740  -15.4200 C   0  0  0  0  0  0  0  0  0  0  0  0
   -3.6260    0.6660  -16.1630 C   0  0  0  0  0  0  0  0  0  0  0  0
   -2.7200    0.0370  -17.0340 C   0  0  0  0  0  0  0  0  0  0  0  0
   -1.7750    0.9420  -17.7630 C   0  0  0  0  0  0  0  0  0  0  0  0
   -2.1990    1.5360  -18.9140 N   0  0  0  0  0  0  0  0  0  0  0  0
   -0.6410    1.1540  -17.3470 O   0  0  0  0  0  0  0  0  0  0  0  0
   -0.9303   -2.7779  -16.3739 H   0  0  0  0  0  0  0  0  0  0  0  0
   -1.0664   -3.8511  -17.8079 H   0  0  0  0  0  0  0  0  0  0  0  0
    0.1146   -2.4977  -17.8079 H   0  0  0  0  0  0  0  0  0  0  0  0
   -3.7350   -3.1788  -16.5200 H   0  0  0  0  0  0  0  0  0  0  0  0
   -7.0381   -2.2785  -13.4631 H   0  0  0  0  0  0  0  0  0  0  0  0
   -7.1041    0.1618  -13.1087 H   0  0  0  0  0  0  0  0  0  0  0  0
   -4.1909    3.4994  -15.8843 H   0  0  0  0  0  0  0  0  0  0  0  0
   -5.1645    4.9240  -17.6843 H   0  0  0  0  0  0  0  0  0  0  0  0
   -7.5490    4.7530  -19.3250 H   0  0  0  0  0  0  0  0  0  0  0  0
   -9.0790    5.9040  -20.2000 H   0  0  0  0  0  0  0  0  0  0  0  0
  -10.4249    7.3912  -18.6628 H   0  0  0  0  0  0  0  0  0  0  0  0
   -9.9412    7.7588  -21.8271 H   0  0  0  0  0  0  0  0  0  0  0  0
  -11.2670    8.4548  -21.4041 H   0  0  0  0  0  0  0  0  0  0  0  0
   -8.3019    9.1344  -20.3503 H   0  0  0  0  0  0  0  0  0  0  0  0
   -9.3405   10.0710  -19.6689 H   0  0  0  0  0  0  0  0  0  0  0  0
   -8.1093    1.9054  -14.9978 H   0  0  0  0  0  0  0  0  0  0  0  0
   -3.5985    1.7606  -16.0581 H   0  0  0  0  0  0  0  0  0  0  0  0
   -3.1420    1.4090  -19.2600 H   0  0  0  0  0  0  0  0  0  0  0  0
   -1.5700    2.1660  -19.3920 H   0  0  0  0  0  0  0  0  0  0  0  0
  1  2  1  0
  2  3  1  0
  3  4  1  0
  4  5  2  0
  5  6  1  0
  6  7  2  0
  7  8  1  0
  8  9  2  0
  9 10  1  0
 10 11  1  0
 11 12  1  0
 12 13  2  0
 13 14  1  0
 14 15  1  0
 15 16  1  0
 16 17  2  0
 16 18  1  0
 18 19  1  0
 19 20  1  0
 20 21  1  0
 14 22  2  0
 22 23  1  0
 22 24  1  0
  9 25  1  0
 25 26  2  0
 26 27  1  0
 27 28  1  0
 28 29  1  0
 28 30  2  0
 27  3  2  0
 25  5  1  0
 24 11  2  0
 21 19  1  0
  1 31  1  0
  1 32  1  0
  1 33  1  0
  4 34  1  0
  7 35  1  0
  8 36  1  0
 12 37  1  0
 13 38  1  0
 15 39  1  0
 18 40  1  0
 19 41  1  0
 20 42  1  0
 20 43  1  0
 21 44  1  0
 21 45  1  0
 24 46  1  0
 26 47  1  0
 29 48  1  0
 29 49  1  0
M  END
>  <meeko>  (4) 
{"is_sidechain": false}

>  <vina_affinity_kcal_mol>  (4) 
-7.768

>  <pose_rank>  (4) 
4

$$$$

     RDKit          3D

 49 52  0  0  0  0  0  0  0  0999 V2000
  -16.9900   -3.3300   -6.4990 C   0  0  0  0  0  0  0  0  0  0  0  0
  -17.0110   -2.7050   -7.7790 O   0  0  0  0  0  0  0  0  0  0  0  0
  -15.8090   -2.4310   -8.3850 C   0  0  0  0  0  0  0  0  0  0  0  0
  -15.1310   -3.3540   -9.1970 C   0  0  0  0  0  0  0  0  0  0  0  0
  -13.9130   -3.0670   -9.8020 C   0  0  0  0  0  0  0  0  0  0  0  0
  -13.3330   -4.0100  -10.5650 N   0  0  0  0  0  0  0  0  0  0  0  0
  -12.1570   -3.7210  -11.1640 C   0  0  0  0  0  0  0  0  0  0  0  0
  -11.5040   -2.5170  -11.0280 C   0  0  0  0  0  0  0  0  0  0  0  0
  -12.0970   -1.5560  -10.2160 C   0  0  0  0  0  0  0  0  0  0  0  0
  -11.5110   -0.3150  -10.0690 O   0  0  0  0  0  0  0  0  0  0  0  0
  -11.5190    0.5070  -11.1730 C   0  0  0  0  0  0  0  0  0  0  0  0
  -10.4830    0.3370  -12.0920 C   0  0  0  0  0  0  0  0  0  0  0  0
  -10.4350    1.1180  -13.2520 C   0  0  0  0  0  0  0  0  0  0  0  0
  -11.4320    2.0600  -13.5160 C   0  0  0  0  0  0  0  0  0  0  0  0
  -11.4370    2.8820  -14.6680 N   0  0  0  0  0  0  0  0  0  0  0  0
  -10.4030    3.6340  -15.1840 C   0  0  0  0  0  0  0  0  0  0  0  0
   -9.2570    3.6810  -14.7580 O   0  0  0  0  0  0  0  0  0  0  0  0
  -10.8190    4.3440  -16.2990 N   0  0  0  0  0  0  0  0  0  0  0  0
   -9.9370    5.2360  -16.9910 C   0  0  0  0  0  0  0  0  0  0  0  0
  -10.0060    6.7190  -16.7520 C   0  0  0  0  0  0  0  0  0  0  0  0
  -10.4600    6.1500  -18.0650 C   0  0  0  0  0  0  0  0  0  0  0  0
  -12.4820    2.2040  -12.5880 C   0  0  0  0  0  0  0  0  0  0  0  0
  -13.7540    3.3510  -12.8540 Cl  0  0  0  0  0  0  0  0  0  0  0  0
  -12.5330    1.4290  -11.4250 C   0  0  0  0  0  0  0  0  0  0  0  0
  -13.3370   -1.8040   -9.5930 C   0  0  0  0  0  0  0  0  0  0  0  0
  -14.0060   -0.8650   -8.7810 C   0  0  0  0  0  0  0  0  0  0  0  0
  -15.2370   -1.1640   -8.1740 C   0  0  0  0  0  0  0  0  0  0  0  0
  -15.8370   -0.0780   -7.3340 C   0  0  0  0  0  0  0  0  0  0  0  0
  -16.5920    0.8770   -7.9470 N   0  0  0  0  0  0  0  0  0  0  0  0
  -15.6610   -0.0340   -6.1220 O   0  0  0  0  0  0  0  0  0  0  0  0
  -17.0159   -2.5596   -5.7143 H   0  0  0  0  0  0  0  0  0  0  0  0
  -17.8666   -3.9867   -6.3972 H   0  0  0  0  0  0  0  0  0  0  0  0
  -16.0713   -3.9264   -6.3972 H   0  0  0  0  0  0  0  0  0  0  0  0
  -15.5817   -4.3439   -9.3610 H   0  0  0  0  0  0  0  0  0  0  0  0
  -11.6946   -4.4926  -11.7971 H   0  0  0  0  0  0  0  0  0  0  0  0
  -10.5507   -2.3225  -11.5413 H   0  0  0  0  0  0  0  0  0  0  0  0
   -9.7012   -0.4136  -11.9039 H   0  0  0  0  0  0  0  0  0  0  0  0
   -9.6049    0.9890  -13.9622 H   0  0  0  0  0  0  0  0  0  0  0  0
  -12.2730    2.8190  -15.2340 H   0  0  0  0  0  0  0  0  0  0  0  0
  -11.8090    4.5210  -16.3810 H   0  0  0  0  0  0  0  0  0  0  0  0
   -9.1455    4.4743  -16.9345 H   0  0  0  0  0  0  0  0  0  0  0  0
  -10.7434    7.1284  -16.0458 H   0  0  0  0  0  0  0  0  0  0  0  0
   -9.2848    7.4917  -16.4474 H   0  0  0  0  0  0  0  0  0  0  0  0
  -11.5299    6.1425  -18.3205 H   0  0  0  0  0  0  0  0  0  0  0  0
  -10.2091    6.3332  -19.1202 H   0  0  0  0  0  0  0  0  0  0  0  0
  -13.3657    1.5461  -10.7159 H   0  0  0  0  0  0  0  0  0  0  0  0
  -13.5534    0.1244   -8.6192 H   0  0  0  0  0  0  0  0  0  0  0  0
  -16.7850    0.8440   -8.9400 H   0  0  0  0  0  0  0  0  0  0  0  0
  -17.0170    1.5940   -7.3770 H   0  0  0  0  0  0  0  0  0  0  0  0
  1  2  1  0
  2  3  1  0
  3  4  1  0
  4  5  2  0
  5  6  1  0
  6  7  2  0
  7  8  1  0
  8  9  2  0
  9 10  1  0
 10 11  1  0
 11 12  1  0
 12 13  2  0
 13 14  1  0
 14 15  1  0
 15 16  1  0
 16 17  2  0
 16 18  1  0
 18 19  1  0
 19 20  1  0
 20 21  1  0
 14 22  2  0
 22 23  1  0
 22 24  1  0
  9 25  1  0
 25 26  2  0
 26 27  1  0
 27 28  1  0
 28 29  1  0
 28 30  2  0
 27  3  2  0
 25  5  1  0
 24 11  2  0
 21 19  1  0
  1 31  1  0
  1 32  1  0
  1 33  1  0
  4 34  1  0
  7 35  1  0
  8 36  1  0
 12 37  1  0
 13 38  1  0
 15 39  1  0
 18 40  1  0
 19 41  1  0
 20 42  1  0
 20 43  1  0
 21 44  1  0
 21 45  1  0
 24 46  1  0
 26 47  1  0
 29 48  1  0
 29 49  1  0
M  END
>  <meeko>  (5) 
{"is_sidechain": false}

>  <vina_affinity_kcal_mol>  (5) 
-7.742

>  <pose_rank>  (5) 
5

$$$$

     RDKit          3D

 49 52  0  0  0  0  0  0  0  0999 V2000
  -11.4060    0.3130   -3.5850 C   0  0  0  0  0  0  0  0  0  0  0  0
  -10.6010    0.3540   -4.7600 O   0  0  0  0  0  0  0  0  0  0  0  0
  -11.2350    0.3560   -5.9780 C   0  0  0  0  0  0  0  0  0  0  0  0
  -12.5980    0.6580   -6.1330 C   0  0  0  0  0  0  0  0  0  0  0  0
  -13.2310    0.6530   -7.3710 C   0  0  0  0  0  0  0  0  0  0  0  0
  -14.5390    0.9560   -7.4280 N   0  0  0  0  0  0  0  0  0  0  0  0
  -15.1470    0.9650   -8.6350 C   0  0  0  0  0  0  0  0  0  0  0  0
  -14.5060    0.6670   -9.8170 C   0  0  0  0  0  0  0  0  0  0  0  0
  -13.1590    0.3290   -9.7460 C   0  0  0  0  0  0  0  0  0  0  0  0
  -12.4520    0.0570  -10.9000 O   0  0  0  0  0  0  0  0  0  0  0  0
  -12.2180    1.1160  -11.7470 C   0  0  0  0  0  0  0  0  0  0  0  0
  -10.9250    1.2450  -12.2530 C   0  0  0  0  0  0  0  0  0  0  0  0
  -10.6130    2.2820  -13.1390 C   0  0  0  0  0  0  0  0  0  0  0  0
  -11.5970    3.1870  -13.5450 C   0  0  0  0  0  0  0  0  0  0  0  0
  -11.3450    4.2590  -14.4350 N   0  0  0  0  0  0  0  0  0  0  0  0
  -10.5830    4.2530  -15.5830 C   0  0  0  0  0  0  0  0  0  0  0  0
  -10.0190    3.2840  -16.0750 O   0  0  0  0  0  0  0  0  0  0  0  0
  -10.5390    5.5160  -16.1530 N   0  0  0  0  0  0  0  0  0  0  0  0
   -9.7710    5.7790  -17.3330 C   0  0  0  0  0  0  0  0  0  0  0  0
   -9.3880    7.1860  -17.6990 C   0  0  0  0  0  0  0  0  0  0  0  0
  -10.4020    6.4480  -18.5230 C   0  0  0  0  0  0  0  0  0  0  0  0
  -12.9030    3.0300  -13.0410 C   0  0  0  0  0  0  0  0  0  0  0  0
  -14.1720    4.1150  -13.5060 Cl  0  0  0  0  0  0  0  0  0  0  0  0
  -13.2180    1.9980  -12.1520 C   0  0  0  0  0  0  0  0  0  0  0  0
  -12.4780    0.3330   -8.5120 C   0  0  0  0  0  0  0  0  0  0  0  0
  -11.1080    0.0280   -8.3740 C   0  0  0  0  0  0  0  0  0  0  0  0
  -10.4770    0.0360   -7.1180 C   0  0  0  0  0  0  0  0  0  0  0  0
   -9.0200   -0.3100   -7.1140 C   0  0  0  0  0  0  0  0  0  0  0  0
   -8.1200    0.6650   -6.8030 N   0  0  0  0  0  0  0  0  0  0  0  0
   -8.6280   -1.4410   -7.3810 O   0  0  0  0  0  0  0  0  0  0  0  0
  -10.7590    0.3460   -2.6960 H   0  0  0  0  0  0  0  0  0  0  0  0
  -12.0859    1.1777   -3.5760 H   0  0  0  0  0  0  0  0  0  0  0  0
  -11.9945   -0.6163   -3.5760 H   0  0  0  0  0  0  0  0  0  0  0  0
  -13.1883    0.9085   -5.2392 H   0  0  0  0  0  0  0  0  0  0  0  0
  -16.2150    1.2252   -8.6757 H   0  0  0  0  0  0  0  0  0  0  0  0
  -15.0385    0.6952  -10.7791 H   0  0  0  0  0  0  0  0  0  0  0  0
  -10.1463    0.5278  -11.9541 H   0  0  0  0  0  0  0  0  0  0  0  0
   -9.5858    2.3855  -13.5186 H   0  0  0  0  0  0  0  0  0  0  0  0
  -11.8820    5.0980  -14.2560 H   0  0  0  0  0  0  0  0  0  0  0  0
  -10.7230    6.2960  -15.5400 H   0  0  0  0  0  0  0  0  0  0  0  0
   -9.2214    4.8406  -17.1677 H   0  0  0  0  0  0  0  0  0  0  0  0
   -9.7032    8.0251  -17.0614 H   0  0  0  0  0  0  0  0  0  0  0  0
   -8.4409    7.7033  -17.9122 H   0  0  0  0  0  0  0  0  0  0  0  0
  -11.4603    6.7462  -18.4891 H   0  0  0  0  0  0  0  0  0  0  0  0
  -10.5057    6.2006  -19.5898 H   0  0  0  0  0  0  0  0  0  0  0  0
  -14.2453    1.8833  -11.7758 H   0  0  0  0  0  0  0  0  0  0  0  0
  -10.5200   -0.2218   -9.2695 H   0  0  0  0  0  0  0  0  0  0  0  0
   -8.4170    1.5970   -6.5420 H   0  0  0  0  0  0  0  0  0  0  0  0
   -7.1390    0.4250   -6.7750 H   0  0  0  0  0  0  0  0  0  0  0  0
  1  2  1  0
  2  3  1  0
  3  4  1  0
  4  5  2  0
  5  6  1  0
  6  7  2  0
  7  8  1  0
  8  9  2  0
  9 10  1  0
 10 11  1  0
 11 12  1  0
 12 13  2  0
 13 14  1  0
 14 15  1  0
 15 16  1  0
 16 17  2  0
 16 18  1  0
 18 19  1  0
 19 20  1  0
 20 21  1  0
 14 22  2  0
 22 23  1  0
 22 24  1  0
  9 25  1  0
 25 26  2  0
 26 27  1  0
 27 28  1  0
 28 29  1  0
 28 30  2  0
 27  3  2  0
 25  5  1  0
 24 11  2  0
 21 19  1  0
  1 31  1  0
  1 32  1  0
  1 33  1  0
  4 34  1  0
  7 35  1  0
  8 36  1  0
 12 37  1  0
 13 38  1  0
 15 39  1  0
 18 40  1  0
 19 41  1  0
 20 42  1  0
 20 43  1  0
 21 44  1  0
 21 45  1  0
 24 46  1  0
 26 47  1  0
 29 48  1  0
 29 49  1  0
M  END
>  <meeko>  (6) 
{"is_sidechain": false}

>  <vina_affinity_kcal_mol>  (6) 
-7.721

>  <pose_rank>  (6) 
6

$$$$

     RDKit          3D

 49 52  0  0  0  0  0  0  0  0999 V2000
  -13.7490   -0.6500   -8.2920 C   0  0  0  0  0  0  0  0  0  0  0  0
  -12.6300   -1.0000   -9.1000 O   0  0  0  0  0  0  0  0  0  0  0  0
  -12.3500   -0.2140  -10.1920 C   0  0  0  0  0  0  0  0  0  0  0  0
  -13.1730    0.8460  -10.6050 C   0  0  0  0  0  0  0  0  0  0  0  0
  -12.8810    1.6320  -11.7140 C   0  0  0  0  0  0  0  0  0  0  0  0
  -13.7250    2.6280  -12.0390 N   0  0  0  0  0  0  0  0  0  0  0  0
  -13.4300    3.4000  -13.1080 C   0  0  0  0  0  0  0  0  0  0  0  0
  -12.3180    3.2180  -13.8990 C   0  0  0  0  0  0  0  0  0  0  0  0
  -11.4650    2.1690  -13.5730 C   0  0  0  0  0  0  0  0  0  0  0  0
  -10.3140    1.9590  -14.3060 O   0  0  0  0  0  0  0  0  0  0  0  0
   -9.9980    2.9120  -15.2480 C   0  0  0  0  0  0  0  0  0  0  0  0
   -9.2340    2.4920  -16.3360 C   0  0  0  0  0  0  0  0  0  0  0  0
   -8.8920    3.3950  -17.3490 C   0  0  0  0  0  0  0  0  0  0  0  0
   -9.3290    4.7210  -17.2940 C   0  0  0  0  0  0  0  0  0  0  0  0
   -9.0140    5.6830  -18.2830 N   0  0  0  0  0  0  0  0  0  0  0  0
   -9.8640    6.2940  -19.1800 C   0  0  0  0  0  0  0  0  0  0  0  0
  -11.0770    6.1480  -19.2460 O   0  0  0  0  0  0  0  0  0  0  0  0
   -9.1640    7.1430  -20.0230 N   0  0  0  0  0  0  0  0  0  0  0  0
   -9.8190    7.8620  -21.0740 C   0  0  0  0  0  0  0  0  0  0  0  0
  -10.5210    7.1270  -22.1820 C   0  0  0  0  0  0  0  0  0  0  0  0
   -9.2480    7.8700  -22.4660 C   0  0  0  0  0  0  0  0  0  0  0  0
  -10.1180    5.1220  -16.1980 C   0  0  0  0  0  0  0  0  0  0  0  0
  -10.6970    6.7510  -16.0690 Cl  0  0  0  0  0  0  0  0  0  0  0  0
  -10.4590    4.2250  -15.1820 C   0  0  0  0  0  0  0  0  0  0  0  0
  -11.7190    1.3560  -12.4510 C   0  0  0  0  0  0  0  0  0  0  0  0
  -10.8810    0.2950  -12.0480 C   0  0  0  0  0  0  0  0  0  0  0  0
  -11.1840   -0.4940  -10.9250 C   0  0  0  0  0  0  0  0  0  0  0  0
  -10.2110   -1.5890  -10.6110 C   0  0  0  0  0  0  0  0  0  0  0  0
   -9.5120   -1.5240   -9.4430 N   0  0  0  0  0  0  0  0  0  0  0  0
  -10.0360   -2.5300  -11.3770 O   0  0  0  0  0  0  0  0  0  0  0  0
  -13.4755   -0.7356   -7.2300 H   0  0  0  0  0  0  0  0  0  0  0  0
  -14.0499    0.3852   -8.5109 H   0  0  0  0  0  0  0  0  0  0  0  0
  -14.5861   -1.3292   -8.5109 H   0  0  0  0  0  0  0  0  0  0  0  0
  -14.0844    1.0630  -10.0286 H   0  0  0  0  0  0  0  0  0  0  0  0
  -14.1175    4.2207  -13.3606 H   0  0  0  0  0  0  0  0  0  0  0  0
  -12.1122    3.8767  -14.7556 H   0  0  0  0  0  0  0  0  0  0  0  0
   -8.8986    1.4463  -16.3985 H   0  0  0  0  0  0  0  0  0  0  0  0
   -8.2746    3.0583  -18.1948 H   0  0  0  0  0  0  0  0  0  0  0  0
   -8.0670    6.0380  -18.2470 H   0  0  0  0  0  0  0  0  0  0  0  0
   -8.1780    6.9570  -20.1370 H   0  0  0  0  0  0  0  0  0  0  0  0
  -10.1090    8.6345  -20.3466 H   0  0  0  0  0  0  0  0  0  0  0  0
  -10.5297    6.0271  -22.1929 H   0  0  0  0  0  0  0  0  0  0  0  0
  -11.5382    7.1395  -22.6006 H   0  0  0  0  0  0  0  0  0  0  0  0
   -8.3241    7.3145  -22.6846 H   0  0  0  0  0  0  0  0  0  0  0  0
   -8.9464    8.6521  -23.1783 H   0  0  0  0  0  0  0  0  0  0  0  0
  -11.0850    4.5524  -14.3388 H   0  0  0  0  0  0  0  0  0  0  0  0
   -9.9699    0.0804  -12.6257 H   0  0  0  0  0  0  0  0  0  0  0  0
   -9.6640   -0.7790   -8.7740 H   0  0  0  0  0  0  0  0  0  0  0  0
   -8.8750   -2.2760   -9.2200 H   0  0  0  0  0  0  0  0  0  0  0  0
  1  2  1  0
  2  3  1  0
  3  4  1  0
  4  5  2  0
  5  6  1  0
  6  7  2  0
  7  8  1  0
  8  9  2  0
  9 10  1  0
 10 11  1  0
 11 12  1  0
 12 13  2  0
 13 14  1  0
 14 15  1  0
 15 16  1  0
 16 17  2  0
 16 18  1  0
 18 19  1  0
 19 20  1  0
 20 21  1  0
 14 22  2  0
 22 23  1  0
 22 24  1  0
  9 25  1  0
 25 26  2  0
 26 27  1  0
 27 28  1  0
 28 29  1  0
 28 30  2  0
 27  3  2  0
 25  5  1  0
 24 11  2  0
 21 19  1  0
  1 31  1  0
  1 32  1  0
  1 33  1  0
  4 34  1  0
  7 35  1  0
  8 36  1  0
 12 37  1  0
 13 38  1  0
 15 39  1  0
 18 40  1  0
 19 41  1  0
 20 42  1  0
 20 43  1  0
 21 44  1  0
 21 45  1  0
 24 46  1  0
 26 47  1  0
 29 48  1  0
 29 49  1  0
M  END
>  <meeko>  (7) 
{"is_sidechain": false}

>  <vina_affinity_kcal_mol>  (7) 
-7.717

>  <pose_rank>  (7) 
7

$$$$

     RDKit          3D

 49 52  0  0  0  0  0  0  0  0999 V2000
  -13.3080    4.1560  -14.0050 C   0  0  0  0  0  0  0  0  0  0  0  0
  -11.9810    3.6800  -13.8070 O   0  0  0  0  0  0  0  0  0  0  0  0
  -11.0400    3.9720  -14.7640 C   0  0  0  0  0  0  0  0  0  0  0  0
  -11.3350    4.6830  -15.9380 C   0  0  0  0  0  0  0  0  0  0  0  0
  -10.3750    4.9700  -16.9020 C   0  0  0  0  0  0  0  0  0  0  0  0
  -10.7460    5.6560  -17.9970 N   0  0  0  0  0  0  0  0  0  0  0  0
   -9.8070    5.9470  -18.9240 C   0  0  0  0  0  0  0  0  0  0  0  0
   -8.4870    5.5680  -18.8210 C   0  0  0  0  0  0  0  0  0  0  0  0
   -8.1180    4.8350  -17.6990 C   0  0  0  0  0  0  0  0  0  0  0  0
   -6.8020    4.4570  -17.5200 O   0  0  0  0  0  0  0  0  0  0  0  0
   -6.5660    3.1160  -17.3180 C   0  0  0  0  0  0  0  0  0  0  0  0
   -7.1790    2.2290  -18.2030 C   0  0  0  0  0  0  0  0  0  0  0  0
   -6.9680    0.8510  -18.0790 C   0  0  0  0  0  0  0  0  0  0  0  0
   -6.1260    0.3480  -17.0840 C   0  0  0  0  0  0  0  0  0  0  0  0
   -5.8770   -1.0330  -16.9040 N   0  0  0  0  0  0  0  0  0  0  0  0
   -6.3050   -1.8510  -15.8800 C   0  0  0  0  0  0  0  0  0  0  0  0
   -7.0370   -1.5310  -14.9530 O   0  0  0  0  0  0  0  0  0  0  0  0
   -5.8080   -3.1360  -16.0350 N   0  0  0  0  0  0  0  0  0  0  0  0
   -6.0760   -4.1630  -15.0730 C   0  0  0  0  0  0  0  0  0  0  0  0
   -5.0470   -5.2180  -14.7740 C   0  0  0  0  0  0  0  0  0  0  0  0
   -6.3010   -5.5840  -15.5130 C   0  0  0  0  0  0  0  0  0  0  0  0
   -5.4990    1.2600  -16.2120 C   0  0  0  0  0  0  0  0  0  0  0  0
   -4.4390    0.7050  -14.9580 Cl  0  0  0  0  0  0  0  0  0  0  0  0
   -5.7080    2.6370  -16.3300 C   0  0  0  0  0  0  0  0  0  0  0  0
   -9.0580    4.5320  -16.6940 C   0  0  0  0  0  0  0  0  0  0  0  0
   -8.7440    3.8180  -15.5180 C   0  0  0  0  0  0  0  0  0  0  0  0
   -9.7210    3.5330  -14.5500 C   0  0  0  0  0  0  0  0  0  0  0  0
   -9.2530    2.7650  -13.3520 C   0  0  0  0  0  0  0  0  0  0  0  0
  -10.0720    1.8090  -12.8300 N   0  0  0  0  0  0  0  0  0  0  0  0
   -8.1600    2.9790  -12.8390 O   0  0  0  0  0  0  0  0  0  0  0  0
  -13.7855    4.3273  -13.0290 H   0  0  0  0  0  0  0  0  0  0  0  0
  -13.2786    5.0997  -14.5695 H   0  0  0  0  0  0  0  0  0  0  0  0
  -13.8851    3.4088  -14.5695 H   0  0  0  0  0  0  0  0  0  0  0  0
  -12.3670    5.0268  -16.1018 H   0  0  0  0  0  0  0  0  0  0  0  0
  -10.1145    6.5193  -19.8117 H   0  0  0  0  0  0  0  0  0  0  0  0
   -7.7535    5.8348  -19.5961 H   0  0  0  0  0  0  0  0  0  0  0  0
   -7.8306    2.6140  -19.0013 H   0  0  0  0  0  0  0  0  0  0  0  0
   -7.4693    0.1581  -18.7708 H   0  0  0  0  0  0  0  0  0  0  0  0
   -5.4180   -1.4890  -17.6820 H   0  0  0  0  0  0  0  0  0  0  0  0
   -4.9740   -3.2350  -16.5940 H   0  0  0  0  0  0  0  0  0  0  0  0
   -6.6417   -3.4348  -14.4733 H   0  0  0  0  0  0  0  0  0  0  0  0
   -4.0813   -5.2089  -15.3007 H   0  0  0  0  0  0  0  0  0  0  0  0
   -4.5475   -5.5806  -13.8635 H   0  0  0  0  0  0  0  0  0  0  0  0
   -6.2541   -5.8429  -16.5811 H   0  0  0  0  0  0  0  0  0  0  0  0
   -7.1005   -6.3255  -15.3682 H   0  0  0  0  0  0  0  0  0  0  0  0
   -5.1999    3.3360  -15.6493 H   0  0  0  0  0  0  0  0  0  0  0  0
   -7.7109    3.4770  -15.3558 H   0  0  0  0  0  0  0  0  0  0  0  0
  -10.9640    1.5850  -13.2560 H   0  0  0  0  0  0  0  0  0  0  0  0
   -9.7460    1.2740  -12.0390 H   0  0  0  0  0  0  0  0  0  0  0  0
  1  2  1  0
  2  3  1  0
  3  4  1  0
  4  5  2  0
  5  6  1  0
  6  7  2  0
  7  8  1  0
  8  9  2  0
  9 10  1  0
 10 11  1  0
 11 12  1  0
 12 13  2  0
 13 14  1  0
 14 15  1  0
 15 16  1  0
 16 17  2  0
 16 18  1  0
 18 19  1  0
 19 20  1  0
 20 21  1  0
 14 22  2  0
 22 23  1  0
 22 24  1  0
  9 25  1  0
 25 26  2  0
 26 27  1  0
 27 28  1  0
 28 29  1  0
 28 30  2  0
 27  3  2  0
 25  5  1  0
 24 11  2  0
 21 19  1  0
  1 31  1  0
  1 32  1  0
  1 33  1  0
  4 34  1  0
  7 35  1  0
  8 36  1  0
 12 37  1  0
 13 38  1  0
 15 39  1  0
 18 40  1  0
 19 41  1  0
 20 42  1  0
 20 43  1  0
 21 44  1  0
 21 45  1  0
 24 46  1  0
 26 47  1  0
 29 48  1  0
 29 49  1  0
M  END
>  <meeko>  (8) 
{"is_sidechain": false}

>  <vina_affinity_kcal_mol>  (8) 
-7.656

>  <pose_rank>  (8) 
8

$$$$

     RDKit          3D

 49 52  0  0  0  0  0  0  0  0999 V2000
   -9.9000    8.1560  -16.2880 C   0  0  0  0  0  0  0  0  0  0  0  0
  -10.3800    7.0990  -17.1120 O   0  0  0  0  0  0  0  0  0  0  0  0
  -10.1630    5.8070  -16.6990 C   0  0  0  0  0  0  0  0  0  0  0  0
  -10.8070    5.2390  -15.5880 C   0  0  0  0  0  0  0  0  0  0  0  0
  -10.5780    3.9310  -15.1760 C   0  0  0  0  0  0  0  0  0  0  0  0
  -11.2390    3.4680  -14.1000 N   0  0  0  0  0  0  0  0  0  0  0  0
  -11.0250    2.1920  -13.7120 C   0  0  0  0  0  0  0  0  0  0  0  0
  -10.1530    1.3350  -14.3470 C   0  0  0  0  0  0  0  0  0  0  0  0
   -9.4530    1.8300  -15.4420 C   0  0  0  0  0  0  0  0  0  0  0  0
   -8.5930    1.0090  -16.1430 O   0  0  0  0  0  0  0  0  0  0  0  0
   -7.4370    0.6300  -15.4980 C   0  0  0  0  0  0  0  0  0  0  0  0
   -6.6410    1.6510  -14.9810 C   0  0  0  0  0  0  0  0  0  0  0  0
   -5.4630    1.3460  -14.2900 C   0  0  0  0  0  0  0  0  0  0  0  0
   -5.0810    0.0160  -14.0910 C   0  0  0  0  0  0  0  0  0  0  0  0
   -3.9010   -0.3570  -13.4050 N   0  0  0  0  0  0  0  0  0  0  0  0
   -3.7160   -0.5150  -12.0480 C   0  0  0  0  0  0  0  0  0  0  0  0
   -4.5740   -0.4080  -11.1810 O   0  0  0  0  0  0  0  0  0  0  0  0
   -2.3990   -0.8400  -11.7640 N   0  0  0  0  0  0  0  0  0  0  0  0
   -1.9440   -1.0120  -10.4170 C   0  0  0  0  0  0  0  0  0  0  0  0
   -0.7580   -0.2430   -9.9050 C   0  0  0  0  0  0  0  0  0  0  0  0
   -0.6490   -1.7220  -10.1310 C   0  0  0  0  0  0  0  0  0  0  0  0
   -5.9090   -1.0030  -14.6020 C   0  0  0  0  0  0  0  0  0  0  0  0
   -5.4970   -2.6730  -14.3870 Cl  0  0  0  0  0  0  0  0  0  0  0  0
   -7.0840   -0.7030  -15.2950 C   0  0  0  0  0  0  0  0  0  0  0  0
   -9.6650    3.1460  -15.8980 C   0  0  0  0  0  0  0  0  0  0  0  0
   -9.0110    3.7020  -17.0180 C   0  0  0  0  0  0  0  0  0  0  0  0
   -9.2500    5.0240  -17.4270 C   0  0  0  0  0  0  0  0  0  0  0  0
   -8.4860    5.4880  -18.6290 C   0  0  0  0  0  0  0  0  0  0  0  0
   -9.1180    6.2860  -19.5350 N   0  0  0  0  0  0  0  0  0  0  0  0
   -7.3160    5.1660  -18.8090 O   0  0  0  0  0  0  0  0  0  0  0  0
  -10.0246    7.8817  -15.2301 H   0  0  0  0  0  0  0  0  0  0  0  0
   -8.8345    8.3302  -16.4986 H   0  0  0  0  0  0  0  0  0  0  0  0
  -10.4700    9.0729  -16.4986 H   0  0  0  0  0  0  0  0  0  0  0  0
  -11.5215    5.8537  -15.0208 H   0  0  0  0  0  0  0  0  0  0  0  0
  -11.5786    1.8156  -12.8391 H   0  0  0  0  0  0  0  0  0  0  0  0
  -10.0158    0.2997  -14.0014 H   0  0  0  0  0  0  0  0  0  0  0  0
   -6.9401    2.7008  -15.1168 H   0  0  0  0  0  0  0  0  0  0  0  0
   -4.8327    2.1590  -13.9004 H   0  0  0  0  0  0  0  0  0  0  0  0
   -3.1350   -0.6470  -13.9990 H   0  0  0  0  0  0  0  0  0  0  0  0
   -1.7090   -0.5810  -12.4530 H   0  0  0  0  0  0  0  0  0  0  0  0
   -2.9885   -1.1372  -10.0956 H   0  0  0  0  0  0  0  0  0  0  0  0
   -0.2272    0.4551  -10.5690 H   0  0  0  0  0  0  0  0  0  0  0  0
   -0.5761    0.4285   -9.0529 H   0  0  0  0  0  0  0  0  0  0  0  0
   -0.0386   -2.1079  -10.9607 H   0  0  0  0  0  0  0  0  0  0  0  0
   -0.3544   -2.5833   -9.5134 H   0  0  0  0  0  0  0  0  0  0  0  0
   -7.7249   -1.5113  -15.6770 H   0  0  0  0  0  0  0  0  0  0  0  0
   -8.2972    3.0854  -17.5840 H   0  0  0  0  0  0  0  0  0  0  0  0
  -10.0700    6.5980  -19.3920 H   0  0  0  0  0  0  0  0  0  0  0  0
   -8.5950    6.6190  -20.3320 H   0  0  0  0  0  0  0  0  0  0  0  0
  1  2  1  0
  2  3  1  0
  3  4  1  0
  4  5  2  0
  5  6  1  0
  6  7  2  0
  7  8  1  0
  8  9  2  0
  9 10  1  0
 10 11  1  0
 11 12  1  0
 12 13  2  0
 13 14  1  0
 14 15  1  0
 15 16  1  0
 16 17  2  0
 16 18  1  0
 18 19  1  0
 19 20  1  0
 20 21  1  0
 14 22  2  0
 22 23  1  0
 22 24  1  0
  9 25  1  0
 25 26  2  0
 26 27  1  0
 27 28  1  0
 28 29  1  0
 28 30  2  0
 27  3  2  0
 25  5  1  0
 24 11  2  0
 21 19  1  0
  1 31  1  0
  1 32  1  0
  1 33  1  0
  4 34  1  0
  7 35  1  0
  8 36  1  0
 12 37  1  0
 13 38  1  0
 15 39  1  0
 18 40  1  0
 19 41  1  0
 20 42  1  0
 20 43  1  0
 21 44  1  0
 21 45  1  0
 24 46  1  0
 26 47  1  0
 29 48  1  0
 29 49  1  0
M  END
>  <meeko>  (9) 
{"is_sidechain": false}

>  <vina_affinity_kcal_mol>  (9) 
-7.637

>  <pose_rank>  (9) 
9

$$$$

     RDKit          3D

 49 52  0  0  0  0  0  0  0  0999 V2000
  -12.9770    0.0470   -6.3860 C   0  0  0  0  0  0  0  0  0  0  0  0
  -13.0700   -1.1140   -7.2060 O   0  0  0  0  0  0  0  0  0  0  0  0
  -12.2830   -1.1750   -8.3300 C   0  0  0  0  0  0  0  0  0  0  0  0
  -10.9110   -1.4720   -8.2910 C   0  0  0  0  0  0  0  0  0  0  0  0
  -10.1230   -1.5280   -9.4350 C   0  0  0  0  0  0  0  0  0  0  0  0
   -8.8170   -1.8200   -9.3060 N   0  0  0  0  0  0  0  0  0  0  0  0
   -8.0580   -1.8890  -10.4210 C   0  0  0  0  0  0  0  0  0  0  0  0
   -8.5420   -1.6620  -11.6910 C   0  0  0  0  0  0  0  0  0  0  0  0
   -9.8880   -1.3350  -11.8140 C   0  0  0  0  0  0  0  0  0  0  0  0
  -10.4400   -1.1330  -13.0630 O   0  0  0  0  0  0  0  0  0  0  0  0
  -10.3650    0.1430  -13.5730 C   0  0  0  0  0  0  0  0  0  0  0  0
   -9.2610    0.4380  -14.3730 C   0  0  0  0  0  0  0  0  0  0  0  0
   -9.1250    1.7050  -14.9490 C   0  0  0  0  0  0  0  0  0  0  0  0
  -10.1020    2.6850  -14.7480 C   0  0  0  0  0  0  0  0  0  0  0  0
  -10.0200    3.9860  -15.2990 N   0  0  0  0  0  0  0  0  0  0  0  0
   -9.5380    4.3600  -16.5340 C   0  0  0  0  0  0  0  0  0  0  0  0
   -9.1340    3.6110  -17.4140 O   0  0  0  0  0  0  0  0  0  0  0  0
   -9.5800    5.7380  -16.6830 N   0  0  0  0  0  0  0  0  0  0  0  0
   -9.0900    6.3780  -17.8670 C   0  0  0  0  0  0  0  0  0  0  0  0
   -9.4670    7.8000  -18.1800 C   0  0  0  0  0  0  0  0  0  0  0  0
  -10.0160    6.6790  -19.0140 C   0  0  0  0  0  0  0  0  0  0  0  0
  -11.2210    2.3630  -13.9550 C   0  0  0  0  0  0  0  0  0  0  0  0
  -12.4710    3.5290  -13.6680 Cl  0  0  0  0  0  0  0  0  0  0  0  0
  -11.3600    1.0990  -13.3750 C   0  0  0  0  0  0  0  0  0  0  0  0
  -10.7220   -1.2780  -10.6800 C   0  0  0  0  0  0  0  0  0  0  0  0
  -12.1000   -0.9800  -10.7360 C   0  0  0  0  0  0  0  0  0  0  0  0
  -12.8880   -0.9260   -9.5750 C   0  0  0  0  0  0  0  0  0  0  0  0
  -14.3350   -0.5960   -9.7770 C   0  0  0  0  0  0  0  0  0  0  0  0
  -15.2740   -1.4640   -9.3070 N   0  0  0  0  0  0  0  0  0  0  0  0
  -14.6840    0.4290  -10.3530 O   0  0  0  0  0  0  0  0  0  0  0  0
  -13.0007   -0.2493   -5.3269 H   0  0  0  0  0  0  0  0  0  0  0  0
  -12.0339    0.5717   -6.5989 H   0  0  0  0  0  0  0  0  0  0  0  0
  -13.8245    0.7151   -6.5989 H   0  0  0  0  0  0  0  0  0  0  0  0
  -10.4409   -1.6682   -7.3161 H   0  0  0  0  0  0  0  0  0  0  0  0
   -6.9931   -2.1407  -10.3089 H   0  0  0  0  0  0  0  0  0  0  0  0
   -7.8891   -1.7365  -12.5731 H   0  0  0  0  0  0  0  0  0  0  0  0
   -8.4937   -0.3297  -14.5516 H   0  0  0  0  0  0  0  0  0  0  0  0
   -8.2425    1.9325  -15.5650 H   0  0  0  0  0  0  0  0  0  0  0  0
  -10.4730    4.7090  -14.7550 H   0  0  0  0  0  0  0  0  0  0  0  0
   -9.5930    6.2850  -15.8360 H   0  0  0  0  0  0  0  0  0  0  0  0
   -8.1428    5.8302  -17.7542 H   0  0  0  0  0  0  0  0  0  0  0  0
  -10.1301    8.3553  -17.5003 H   0  0  0  0  0  0  0  0  0  0  0  0
   -8.9084    8.7239  -18.3904 H   0  0  0  0  0  0  0  0  0  0  0  0
  -11.0811    6.4131  -18.9451 H   0  0  0  0  0  0  0  0  0  0  0  0
  -10.0260    6.4418  -20.0881 H   0  0  0  0  0  0  0  0  0  0  0  0
  -12.2460    0.8609  -12.7681 H   0  0  0  0  0  0  0  0  0  0  0  0
  -12.5681   -0.7854  -11.7122 H   0  0  0  0  0  0  0  0  0  0  0  0
  -15.0150   -2.2990   -8.7950 H   0  0  0  0  0  0  0  0  0  0  0  0
  -16.2490   -1.2280   -9.4210 H   0  0  0  0  0  0  0  0  0  0  0  0
  1  2  1  0
  2  3  1  0
  3  4  1  0
  4  5  2  0
  5  6  1  0
  6  7  2  0
  7  8  1  0
  8  9  2  0
  9 10  1  0
 10 11  1  0
 11 12  1  0
 12 13  2  0
 13 14  1  0
 14 15  1  0
 15 16  1  0
 16 17  2  0
 16 18  1  0
 18 19  1  0
 19 20  1  0
 20 21  1  0
 14 22  2  0
 22 23  1  0
 22 24  1  0
  9 25  1  0
 25 26  2  0
 26 27  1  0
 27 28  1  0
 28 29  1  0
 28 30  2  0
 27  3  2  0
 25  5  1  0
 24 11  2  0
 21 19  1  0
  1 31  1  0
  1 32  1  0
  1 33  1  0
  4 34  1  0
  7 35  1  0
  8 36  1  0
 12 37  1  0
 13 38  1  0
 15 39  1  0
 18 40  1  0
 19 41  1  0
 20 42  1  0
 20 43  1  0
 21 44  1  0
 21 45  1  0
 24 46  1  0
 26 47  1  0
 29 48  1  0
 29 49  1  0
M  END
>  <meeko>  (10) 
{"is_sidechain": false}

>  <vina_affinity_kcal_mol>  (10) 
-7.635

>  <pose_rank>  (10) 
10

$$$$
