
     RDKit          3D

 64 69  0  0  0  0  0  0  0  0999 V2000
   10.4058    1.8322   -1.7928 C   0  0  0  0  0  0  0  0  0  0  0  0
    9.0680    1.3980   -1.4724 N   0  0  0  0  0  0  0  0  0  0  0  0
    8.5967    1.0279   -0.2467 C   0  0  0  0  0  0  0  0  0  0  0  0
    7.2746    0.6959   -0.4340 C   0  0  0  0  0  0  0  0  0  0  0  0
    6.3120    0.2357    0.5548 C   0  0  0  0  0  0  0  0  0  0  0  0
    4.9549   -0.0935    0.3035 C   0  0  0  0  0  0  0  0  0  0  0  0
    4.3857   -0.4670    1.5086 C   0  0  0  0  0  0  0  0  0  0  0  0
    3.0787   -0.9093    1.9219 C   0  0  0  0  0  0  0  0  0  0  0  0
    1.9395   -0.9509    1.1303 N   0  0  0  0  0  0  0  0  0  0  0  0
    1.0058   -2.0890    1.2567 C   0  0  0  0  0  0  0  0  0  0  0  0
   -0.4567   -1.6537    1.0546 C   0  0  0  0  0  0  0  0  0  0  0  0
   -0.6114   -0.9095   -0.2064 N   0  0  0  0  0  0  0  0  0  0  0  0
   -1.9386   -0.5946   -0.5095 C   0  0  0  0  0  0  0  0  0  0  0  0
   -2.9201   -1.3595   -0.0092 N   0  0  0  0  0  0  0  0  0  0  0  0
   -4.1929   -1.0498   -0.3383 C   0  0  0  0  0  0  0  0  0  0  0  0
   -4.5635    0.0072   -1.1463 C   0  0  0  0  0  0  0  0  0  0  0  0
   -6.0161    0.3062   -1.4888 C   0  0  1  0  0  0  0  0  0  0  0  0
   -6.2293    1.7296   -2.0655 C   0  0  0  0  0  0  0  0  0  0  0  0
   -6.4072   -0.6003   -2.5809 N   0  0  0  0  0  0  0  0  0  0  0  0
   -6.9360    0.1836   -0.2474 C   0  0  0  0  0  0  0  0  0  0  0  0
   -6.6832    0.9909    0.8857 C   0  0  0  0  0  0  0  0  0  0  0  0
   -7.4841    0.9112    2.0274 C   0  0  0  0  0  0  0  0  0  0  0  0
   -8.5496    0.0247    2.0538 C   0  0  0  0  0  0  0  0  0  0  0  0
   -9.3191   -0.0534    3.1469 F   0  0  0  0  0  0  0  0  0  0  0  0
   -8.8277   -0.7839    0.9610 C   0  0  0  0  0  0  0  0  0  0  0  0
   -8.0270   -0.7069   -0.1833 C   0  0  0  0  0  0  0  0  0  0  0  0
   -3.4820    0.7118   -1.6275 C   0  0  0  0  0  0  0  0  0  0  0  0
   -2.1928    0.4434   -1.3215 N   0  0  0  0  0  0  0  0  0  0  0  0
    0.3102    0.2280   -0.3465 C   0  0  0  0  0  0  0  0  0  0  0  0
    1.7760   -0.2028   -0.1217 C   0  0  0  0  0  0  0  0  0  0  0  0
    2.9651   -1.3019    3.1623 N   0  0  0  0  0  0  0  0  0  0  0  0
    4.0377   -1.2325    4.0105 C   0  0  0  0  0  0  0  0  0  0  0  0
    5.2282   -0.8087    3.7312 N   0  0  0  0  0  0  0  0  0  0  0  0
    5.3718   -0.4311    2.4541 N   0  0  0  0  0  0  0  0  0  0  0  0
    6.5348    0.0237    1.8965 C   0  0  0  0  0  0  0  0  0  0  0  0
    7.0484    0.9007   -1.8096 C   0  0  0  0  0  0  0  0  0  0  0  0
    8.1418    1.3315   -2.4480 N   0  0  0  0  0  0  0  0  0  0  0  0
   11.0176    1.8251   -0.8874 H   0  0  0  0  0  0  0  0  0  0  0  0
   10.3513    2.8456   -2.1984 H   0  0  0  0  0  0  0  0  0  0  0  0
   10.8240    1.1437   -2.5312 H   0  0  0  0  0  0  0  0  0  0  0  0
    9.2240    1.0312    0.6330 H   0  0  0  0  0  0  0  0  0  0  0  0
    4.4580   -0.0658   -0.6550 H   0  0  0  0  0  0  0  0  0  0  0  0
    1.0856   -2.5770    2.2344 H   0  0  0  0  0  0  0  0  0  0  0  0
    1.2747   -2.8400    0.5031 H   0  0  0  0  0  0  0  0  0  0  0  0
   -0.7677   -1.0255    1.9001 H   0  0  0  0  0  0  0  0  0  0  0  0
   -1.0696   -2.5635    1.0587 H   0  0  0  0  0  0  0  0  0  0  0  0
   -4.9318   -1.7183    0.0964 H   0  0  0  0  0  0  0  0  0  0  0  0
   -7.2939    1.9406   -2.2319 H   0  0  0  0  0  0  0  0  0  0  0  0
   -5.8463    2.5073   -1.3936 H   0  0  0  0  0  0  0  0  0  0  0  0
   -5.7240    1.8635   -3.0304 H   0  0  0  0  0  0  0  0  0  0  0  0
   -7.3659   -0.4106   -2.8639 H   0  0  0  0  0  0  0  0  0  0  0  0
   -6.3616   -1.5668   -2.2669 H   0  0  0  0  0  0  0  0  0  0  0  0
   -5.8473    1.6896    0.8917 H   0  0  0  0  0  0  0  0  0  0  0  0
   -7.2801    1.5331    2.8934 H   0  0  0  0  0  0  0  0  0  0  0  0
   -9.6672   -1.4711    1.0048 H   0  0  0  0  0  0  0  0  0  0  0  0
   -8.2806   -1.3583   -1.0151 H   0  0  0  0  0  0  0  0  0  0  0  0
   -3.5951    1.5493   -2.3089 H   0  0  0  0  0  0  0  0  0  0  0  0
    0.2531    0.6675   -1.3502 H   0  0  0  0  0  0  0  0  0  0  0  0
    0.0511    1.0074    0.3832 H   0  0  0  0  0  0  0  0  0  0  0  0
    2.1130   -0.8246   -0.9596 H   0  0  0  0  0  0  0  0  0  0  0  0
    2.3742    0.7138   -0.1084 H   0  0  0  0  0  0  0  0  0  0  0  0
    3.8465   -1.5721    5.0428 H   0  0  0  0  0  0  0  0  0  0  0  0
    7.4190    0.1345    2.5070 H   0  0  0  0  0  0  0  0  0  0  0  0
    6.1407    0.7577   -2.3800 H   0  0  0  0  0  0  0  0  0  0  0  0
  1  2  1  0
  2  3  1  0
  3  4  2  0
  4  5  1  0
  5  6  1  0
  6  7  2  0
  7  8  1  0
  8  9  1  0
  9 10  1  0
 10 11  1  0
 11 12  1  0
 12 13  1  0
 13 14  2  0
 14 15  1  0
 15 16  2  0
 16 17  1  0
 17 18  1  0
 17 19  1  6
 17 20  1  0
 20 21  1  0
 21 22  2  0
 22 23  1  0
 23 24  1  0
 23 25  2  0
 25 26  1  0
 16 27  1  0
 27 28  2  0
 12 29  1  0
 29 30  1  0
  8 31  2  0
 31 32  1  0
 32 33  2  0
 33 34  1  0
 34 35  1  0
  4 36  1  0
 36 37  2  0
 37  2  1  0
 35  5  2  0
 34  7  1  0
 30  9  1  0
 28 13  1  0
 26 20  2  0
  1 38  1  0
  1 39  1  0
  1 40  1  0
  3 41  1  0
  6 42  1  0
 10 43  1  0
 10 44  1  0
 11 45  1  0
 11 46  1  0
 15 47  1  0
 18 48  1  0
 18 49  1  0
 18 50  1  0
 19 51  1  0
 19 52  1  0
 21 53  1  0
 22 54  1  0
 25 55  1  0
 26 56  1  0
 27 57  1  0
 29 58  1  0
 29 59  1  0
 30 60  1  0
 30 61  1  0
 32 62  1  0
 35 63  1  0
 36 64  1  0
M  END
$$$$
