
     RDKit          3D

 64 69  0  0  0  0  0  0  0  0999 V2000
   -9.9330    7.6450  -21.7260 C   0  0  0  0  0  0  0  0  0  0  0  0
   -9.9100    7.4320  -20.2990 N   0  0  0  0  0  0  0  0  0  0  0  0
  -10.4390    6.3750  -19.6180 C   0  0  0  0  0  0  0  0  0  0  0  0
  -10.1750    6.6110  -18.2890 C   0  0  0  0  0  0  0  0  0  0  0  0
  -10.5240    5.7890  -17.1400 C   0  0  0  0  0  0  0  0  0  0  0  0
   -9.7490    4.7220  -16.6160 C   0  0  0  0  0  0  0  0  0  0  0  0
  -10.4420    4.1940  -15.5390 C   0  0  0  0  0  0  0  0  0  0  0  0
  -10.2010    3.1290  -14.6000 C   0  0  0  0  0  0  0  0  0  0  0  0
   -9.1560    2.2170  -14.6450 N   0  0  0  0  0  0  0  0  0  0  0  0
   -8.4930    1.8060  -13.3900 C   0  0  0  0  0  0  0  0  0  0  0  0
   -8.0510    0.3320  -13.4320 C   0  0  0  0  0  0  0  0  0  0  0  0
   -7.2440    0.0630  -14.6340 N   0  0  0  0  0  0  0  0  0  0  0  0
   -6.7060   -1.2270  -14.6680 C   0  0  0  0  0  0  0  0  0  0  0  0
   -6.6180   -1.8650  -15.8440 N   0  0  0  0  0  0  0  0  0  0  0  0
   -6.1170   -3.1190  -15.8460 C   0  0  0  0  0  0  0  0  0  0  0  0
   -5.6760   -3.7940  -14.7240 C   0  0  0  0  0  0  0  0  0  0  0  0
   -5.1250   -5.2120  -14.7850 C   0  0  1  0  0  0  0  0  0  0  0  0
   -4.5440   -5.7020  -13.4330 C   0  0  0  0  0  0  0  0  0  0  0  0
   -6.2580   -6.1130  -15.0530 N   0  0  0  0  0  0  0  0  0  0  0  0
   -3.9910   -5.3430  -15.8330 C   0  0  0  0  0  0  0  0  0  0  0  0
   -4.0630   -6.3620  -16.8110 C   0  0  0  0  0  0  0  0  0  0  0  0
   -3.0610   -6.5180  -17.7710 C   0  0  0  0  0  0  0  0  0  0  0  0
   -1.9730   -5.6600  -17.7710 C   0  0  0  0  0  0  0  0  0  0  0  0
   -1.0120   -5.8080  -18.6910 F   0  0  0  0  0  0  0  0  0  0  0  0
   -1.8670   -4.6480  -16.8260 C   0  0  0  0  0  0  0  0  0  0  0  0
   -2.8680   -4.4900  -15.8620 C   0  0  0  0  0  0  0  0  0  0  0  0
   -5.8330   -3.0620  -13.5680 C   0  0  0  0  0  0  0  0  0  0  0  0
   -6.3230   -1.8020  -13.5180 N   0  0  0  0  0  0  0  0  0  0  0  0
   -7.8910    0.4650  -15.8920 C   0  0  0  0  0  0  0  0  0  0  0  0
   -8.3540    1.9370  -15.8420 C   0  0  0  0  0  0  0  0  0  0  0  0
  -11.0560    3.0170  -13.6190 N   0  0  0  0  0  0  0  0  0  0  0  0
  -12.1410    3.8500  -13.5490 C   0  0  0  0  0  0  0  0  0  0  0  0
  -12.4510    4.7990  -14.3730 N   0  0  0  0  0  0  0  0  0  0  0  0
  -11.5680    4.9490  -15.3690 N   0  0  0  0  0  0  0  0  0  0  0  0
  -11.6450    5.8970  -16.3510 C   0  0  0  0  0  0  0  0  0  0  0  0
   -9.4800    7.8380  -18.2760 C   0  0  0  0  0  0  0  0  0  0  0  0
   -9.3150    8.3420  -19.5040 N   0  0  0  0  0  0  0  0  0  0  0  0
  -10.0489    8.7188  -21.9346 H   0  0  0  0  0  0  0  0  0  0  0  0
   -8.9908    7.2857  -22.1656 H   0  0  0  0  0  0  0  0  0  0  0  0
  -10.7767    7.0929  -22.1656 H   0  0  0  0  0  0  0  0  0  0  0  0
  -10.9686    5.5104  -20.0447 H   0  0  0  0  0  0  0  0  0  0  0  0
   -8.7759    4.3772  -16.9956 H   0  0  0  0  0  0  0  0  0  0  0  0
   -7.6073    2.4388  -13.2317 H   0  0  0  0  0  0  0  0  0  0  0  0
   -9.2149    1.9228  -12.5683 H   0  0  0  0  0  0  0  0  0  0  0  0
   -7.4509    0.1097  -12.5373 H   0  0  0  0  0  0  0  0  0  0  0  0
   -8.9476   -0.3047  -13.4591 H   0  0  0  0  0  0  0  0  0  0  0  0
   -6.0555   -3.6416  -16.8120 H   0  0  0  0  0  0  0  0  0  0  0  0
   -5.0977   -5.2350  -12.6052 H   0  0  0  0  0  0  0  0  0  0  0  0
   -4.6401   -6.7958  -13.3675 H   0  0  0  0  0  0  0  0  0  0  0  0
   -3.4821   -5.4227  -13.3675 H   0  0  0  0  0  0  0  0  0  0  0  0
   -6.0030   -6.7890  -15.7700 H   0  0  0  0  0  0  0  0  0  0  0  0
   -7.0550   -5.5820  -15.3960 H   0  0  0  0  0  0  0  0  0  0  0  0
   -4.9252   -7.0451  -16.8156 H   0  0  0  0  0  0  0  0  0  0  0  0
   -3.1350   -7.3175  -18.5229 H   0  0  0  0  0  0  0  0  0  0  0  0
   -0.9986   -3.9728  -16.8356 H   0  0  0  0  0  0  0  0  0  0  0  0
   -2.7781   -3.6879  -15.1147 H   0  0  0  0  0  0  0  0  0  0  0  0
   -5.5395   -3.5348  -12.6192 H   0  0  0  0  0  0  0  0  0  0  0  0
   -7.1746    0.3430  -16.7178 H   0  0  0  0  0  0  0  0  0  0  0  0
   -8.7753   -0.1711  -16.0452 H   0  0  0  0  0  0  0  0  0  0  0  0
   -7.4679    2.5888  -15.8371 H   0  0  0  0  0  0  0  0  0  0  0  0
   -8.9810    2.1278  -16.7254 H   0  0  0  0  0  0  0  0  0  0  0  0
  -12.8233    3.6958  -12.7001 H   0  0  0  0  0  0  0  0  0  0  0  0
  -12.4622    6.6208  -16.4865 H   0  0  0  0  0  0  0  0  0  0  0  0
   -9.1150    8.3253  -17.3599 H   0  0  0  0  0  0  0  0  0  0  0  0
  1  2  1  0
  2  3  1  0
  3  4  2  0
  4  5  1  0
  5  6  1  0
  6  7  2  0
  7  8  1  0
  8  9  1  0
  9 10  1  0
 10 11  1  0
 11 12  1  0
 12 13  1  0
 13 14  2  0
 14 15  1  0
 15 16  2  0
 16 17  1  0
 17 18  1  0
 17 19  1  6
 17 20  1  0
 20 21  1  0
 21 22  2  0
 22 23  1  0
 23 24  1  0
 23 25  2  0
 25 26  1  0
 16 27  1  0
 27 28  2  0
 12 29  1  0
 29 30  1  0
  8 31  2  0
 31 32  1  0
 32 33  2  0
 33 34  1  0
 34 35  1  0
  4 36  1  0
 36 37  2  0
 37  2  1  0
 35  5  2  0
 34  7  1  0
 30  9  1  0
 28 13  1  0
 26 20  2  0
  1 38  1  0
  1 39  1  0
  1 40  1  0
  3 41  1  0
  6 42  1  0
 10 43  1  0
 10 44  1  0
 11 45  1  0
 11 46  1  0
 15 47  1  0
 18 48  1  0
 18 49  1  0
 18 50  1  0
 19 51  1  0
 19 52  1  0
 21 53  1  0
 22 54  1  0
 25 55  1  0
 26 56  1  0
 27 57  1  0
 29 58  1  0
 29 59  1  0
 30 60  1  0
 30 61  1  0
 32 62  1  0
 35 63  1  0
 36 64  1  0
M  END
>  <meeko>  (1) 
{"is_sidechain": false}

>  <vina_affinity_kcal_mol>  (1) 
-9.98

>  <pose_rank>  (1) 
1

$$$$

     RDKit          3D

 64 69  0  0  0  0  0  0  0  0999 V2000
  -10.0210    7.7660  -21.8010 C   0  0  0  0  0  0  0  0  0  0  0  0
   -9.9330    7.5350  -20.3800 N   0  0  0  0  0  0  0  0  0  0  0  0
  -10.2810    6.4000  -19.7100 C   0  0  0  0  0  0  0  0  0  0  0  0
  -10.0250    6.6500  -18.3810 C   0  0  0  0  0  0  0  0  0  0  0  0
  -10.2190    5.7650  -17.2430 C   0  0  0  0  0  0  0  0  0  0  0  0
   -9.2790    4.8230  -16.7530 C   0  0  0  0  0  0  0  0  0  0  0  0
   -9.8600    4.1770  -15.6740 C   0  0  0  0  0  0  0  0  0  0  0  0
   -9.4390    3.1470  -14.7600 C   0  0  0  0  0  0  0  0  0  0  0  0
   -8.2670    2.4090  -14.8400 N   0  0  0  0  0  0  0  0  0  0  0  0
   -7.5240    2.0850  -13.6050 C   0  0  0  0  0  0  0  0  0  0  0  0
   -6.8600    0.6970  -13.6830 C   0  0  0  0  0  0  0  0  0  0  0  0
   -6.0460    0.5760  -14.9040 N   0  0  0  0  0  0  0  0  0  0  0  0
   -5.3160   -0.6140  -14.9720 C   0  0  0  0  0  0  0  0  0  0  0  0
   -5.1100   -1.3170  -13.8480 N   0  0  0  0  0  0  0  0  0  0  0  0
   -4.3810   -2.4500  -13.9370 C   0  0  0  0  0  0  0  0  0  0  0  0
   -3.8380   -2.9490  -15.1040 C   0  0  0  0  0  0  0  0  0  0  0  0
   -3.0170   -4.2310  -15.1440 C   0  0  1  0  0  0  0  0  0  0  0  0
   -1.5910   -4.0280  -15.7170 C   0  0  0  0  0  0  0  0  0  0  0  0
   -2.8030   -4.6610  -13.7530 N   0  0  0  0  0  0  0  0  0  0  0  0
   -3.6970   -5.3210  -16.0130 C   0  0  0  0  0  0  0  0  0  0  0  0
   -3.0210   -5.8250  -17.1480 C   0  0  0  0  0  0  0  0  0  0  0  0
   -3.5970   -6.8040  -17.9590 C   0  0  0  0  0  0  0  0  0  0  0  0
   -4.8560   -7.2950  -17.6500 C   0  0  0  0  0  0  0  0  0  0  0  0
   -5.4100   -8.2340  -18.4280 F   0  0  0  0  0  0  0  0  0  0  0  0
   -5.5500   -6.8230  -16.5450 C   0  0  0  0  0  0  0  0  0  0  0  0
   -4.9760   -5.8420  -15.7300 C   0  0  0  0  0  0  0  0  0  0  0  0
   -4.0850   -2.1420  -16.1930 C   0  0  0  0  0  0  0  0  0  0  0  0
   -4.8140   -1.0040  -16.1530 N   0  0  0  0  0  0  0  0  0  0  0  0
   -6.7720    0.8930  -16.1420 C   0  0  0  0  0  0  0  0  0  0  0  0
   -7.4560    2.2750  -16.0560 C   0  0  0  0  0  0  0  0  0  0  0  0
  -10.2470    2.8880  -13.7660 N   0  0  0  0  0  0  0  0  0  0  0  0
  -11.4460    3.5430  -13.6610 C   0  0  0  0  0  0  0  0  0  0  0  0
  -11.9150    4.4450  -14.4610 N   0  0  0  0  0  0  0  0  0  0  0  0
  -11.0850    4.7460  -15.4690 N   0  0  0  0  0  0  0  0  0  0  0  0
  -11.3280    5.6860  -16.4320 C   0  0  0  0  0  0  0  0  0  0  0  0
   -9.5230    7.9670  -18.3580 C   0  0  0  0  0  0  0  0  0  0  0  0
   -9.4640    8.5120  -19.5790 N   0  0  0  0  0  0  0  0  0  0  0  0
  -10.4071    8.7795  -21.9845 H   0  0  0  0  0  0  0  0  0  0  0  0
   -9.0222    7.6671  -22.2511 H   0  0  0  0  0  0  0  0  0  0  0  0
  -10.7008    7.0276  -22.2511 H   0  0  0  0  0  0  0  0  0  0  0  0
  -10.6844    5.4729  -20.1434 H   0  0  0  0  0  0  0  0  0  0  0  0
   -8.2722    4.6389  -17.1561 H   0  0  0  0  0  0  0  0  0  0  0  0
   -6.7437    2.8446  -13.4495 H   0  0  0  0  0  0  0  0  0  0  0  0
   -8.2389    2.0750  -12.7691 H   0  0  0  0  0  0  0  0  0  0  0  0
   -6.2145    0.5558  -12.8035 H   0  0  0  0  0  0  0  0  0  0  0  0
   -7.6477   -0.0705  -13.7062 H   0  0  0  0  0  0  0  0  0  0  0  0
   -4.2068   -3.0175  -13.0109 H   0  0  0  0  0  0  0  0  0  0  0  0
   -0.8742   -3.9260  -14.8889 H   0  0  0  0  0  0  0  0  0  0  0  0
   -1.3169   -4.8962  -16.3344 H   0  0  0  0  0  0  0  0  0  0  0  0
   -1.5700   -3.1178  -16.3344 H   0  0  0  0  0  0  0  0  0  0  0  0
   -2.3280   -5.5610  -13.7360 H   0  0  0  0  0  0  0  0  0  0  0  0
   -3.6960   -4.7730  -13.2790 H   0  0  0  0  0  0  0  0  0  0  0  0
   -2.0218   -5.4380  -17.3966 H   0  0  0  0  0  0  0  0  0  0  0  0
   -3.0553   -7.1836  -18.8379 H   0  0  0  0  0  0  0  0  0  0  0  0
   -6.5490   -7.2194  -16.3106 H   0  0  0  0  0  0  0  0  0  0  0  0
   -5.5307   -5.4715  -14.8553 H   0  0  0  0  0  0  0  0  0  0  0  0
   -3.6599   -2.4443  -17.1615 H   0  0  0  0  0  0  0  0  0  0  0  0
   -6.0621    0.8967  -16.9823 H   0  0  0  0  0  0  0  0  0  0  0  0
   -7.5503    0.1302  -16.2919 H   0  0  0  0  0  0  0  0  0  0  0  0
   -6.6813    3.0559  -16.0547 H   0  0  0  0  0  0  0  0  0  0  0  0
   -8.1231    2.3801  -16.9243 H   0  0  0  0  0  0  0  0  0  0  0  0
  -12.0787    3.2723  -12.8029 H   0  0  0  0  0  0  0  0  0  0  0  0
  -12.2498    6.2764  -16.5397 H   0  0  0  0  0  0  0  0  0  0  0  0
   -9.2144    8.4882  -17.4398 H   0  0  0  0  0  0  0  0  0  0  0  0
  1  2  1  0
  2  3  1  0
  3  4  2  0
  4  5  1  0
  5  6  1  0
  6  7  2  0
  7  8  1  0
  8  9  1  0
  9 10  1  0
 10 11  1  0
 11 12  1  0
 12 13  1  0
 13 14  2  0
 14 15  1  0
 15 16  2  0
 16 17  1  0
 17 18  1  0
 17 19  1  1
 17 20  1  0
 20 21  1  0
 21 22  2  0
 22 23  1  0
 23 24  1  0
 23 25  2  0
 25 26  1  0
 16 27  1  0
 27 28  2  0
 12 29  1  0
 29 30  1  0
  8 31  2  0
 31 32  1  0
 32 33  2  0
 33 34  1  0
 34 35  1  0
  4 36  1  0
 36 37  2  0
 37  2  1  0
 35  5  2  0
 34  7  1  0
 30  9  1  0
 28 13  1  0
 26 20  2  0
  1 38  1  0
  1 39  1  0
  1 40  1  0
  3 41  1  0
  6 42  1  0
 10 43  1  0
 10 44  1  0
 11 45  1  0
 11 46  1  0
 15 47  1  0
 18 48  1  0
 18 49  1  0
 18 50  1  0
 19 51  1  0
 19 52  1  0
 21 53  1  0
 22 54  1  0
 25 55  1  0
 26 56  1  0
 27 57  1  0
 29 58  1  0
 29 59  1  0
 30 60  1  0
 30 61  1  0
 32 62  1  0
 35 63  1  0
 36 64  1  0
M  END
>  <meeko>  (2) 
{"is_sidechain": false}

>  <vina_affinity_kcal_mol>  (2) 
-9.813

>  <pose_rank>  (2) 
2

$$$$

     RDKit          3D

 64 69  0  0  0  0  0  0  0  0999 V2000
   -9.9960    8.2380  -20.9940 C   0  0  0  0  0  0  0  0  0  0  0  0
   -9.6100    7.5980  -19.7600 N   0  0  0  0  0  0  0  0  0  0  0  0
   -9.1520    6.3230  -19.6060 C   0  0  0  0  0  0  0  0  0  0  0  0
   -8.9170    6.1650  -18.2590 C   0  0  0  0  0  0  0  0  0  0  0  0
   -8.4190    4.9880  -17.5630 C   0  0  0  0  0  0  0  0  0  0  0  0
   -9.1600    4.1800  -16.6620 C   0  0  0  0  0  0  0  0  0  0  0  0
   -8.3160    3.1790  -16.2100 C   0  0  0  0  0  0  0  0  0  0  0  0
   -8.4550    2.0640  -15.3090 C   0  0  0  0  0  0  0  0  0  0  0  0
   -9.5590    1.7830  -14.5160 N   0  0  0  0  0  0  0  0  0  0  0  0
   -9.9960    0.3820  -14.3460 C   0  0  0  0  0  0  0  0  0  0  0  0
  -10.5550    0.1240  -12.9350 C   0  0  0  0  0  0  0  0  0  0  0  0
  -11.5980    1.1070  -12.5980 N   0  0  0  0  0  0  0  0  0  0  0  0
  -12.2340    0.8510  -11.3800 C   0  0  0  0  0  0  0  0  0  0  0  0
  -11.5080    0.3900  -10.3510 N   0  0  0  0  0  0  0  0  0  0  0  0
  -12.1510    0.1270   -9.1920 C   0  0  0  0  0  0  0  0  0  0  0  0
  -13.5040    0.3080   -8.9830 C   0  0  0  0  0  0  0  0  0  0  0  0
  -14.1770   -0.0120   -7.6550 C   0  0  1  0  0  0  0  0  0  0  0  0
  -13.3400    0.4210   -6.4240 C   0  0  0  0  0  0  0  0  0  0  0  0
  -15.4030    0.7980   -7.5760 N   0  0  0  0  0  0  0  0  0  0  0  0
  -14.4480   -1.5300   -7.5000 C   0  0  0  0  0  0  0  0  0  0  0  0
  -15.7770   -1.9860   -7.3430 C   0  0  0  0  0  0  0  0  0  0  0  0
  -16.0660   -3.3440   -7.1960 C   0  0  0  0  0  0  0  0  0  0  0  0
  -15.0330   -4.2680   -7.2050 C   0  0  0  0  0  0  0  0  0  0  0  0
  -15.3080   -5.5710   -7.0650 F   0  0  0  0  0  0  0  0  0  0  0  0
  -13.7160   -3.8580   -7.3560 C   0  0  0  0  0  0  0  0  0  0  0  0
  -13.4230   -2.4980   -7.5020 C   0  0  0  0  0  0  0  0  0  0  0  0
  -14.1600    0.7590  -10.1070 C   0  0  0  0  0  0  0  0  0  0  0  0
  -13.5580    1.0420  -11.2840 N   0  0  0  0  0  0  0  0  0  0  0  0
  -11.1770    2.5060  -12.7600 C   0  0  0  0  0  0  0  0  0  0  0  0
  -10.5960    2.7610  -14.1680 C   0  0  0  0  0  0  0  0  0  0  0  0
   -7.4380    1.2480  -15.2370 N   0  0  0  0  0  0  0  0  0  0  0  0
   -6.2970    1.4990  -15.9520 C   0  0  0  0  0  0  0  0  0  0  0  0
   -6.0780    2.4970  -16.7450 N   0  0  0  0  0  0  0  0  0  0  0  0
   -7.1220    3.3290  -16.8560 N   0  0  0  0  0  0  0  0  0  0  0  0
   -7.1600    4.4390  -17.6540 C   0  0  0  0  0  0  0  0  0  0  0  0
   -9.2660    7.4060  -17.6900 C   0  0  0  0  0  0  0  0  0  0  0  0
   -9.6890    8.2850  -18.6040 N   0  0  0  0  0  0  0  0  0  0  0  0
  -10.5522    9.1603  -20.7704 H   0  0  0  0  0  0  0  0  0  0  0  0
   -9.0959    8.4847  -21.5763 H   0  0  0  0  0  0  0  0  0  0  0  0
  -10.6341    7.5570  -21.5763 H   0  0  0  0  0  0  0  0  0  0  0  0
   -9.0011    5.5735  -20.3969 H   0  0  0  0  0  0  0  0  0  0  0  0
  -10.2123    4.3225  -16.3750 H   0  0  0  0  0  0  0  0  0  0  0  0
  -10.7801    0.1615  -15.0853 H   0  0  0  0  0  0  0  0  0  0  0  0
   -9.1211   -0.2688  -14.4911 H   0  0  0  0  0  0  0  0  0  0  0  0
  -10.9867   -0.8871  -12.8974 H   0  0  0  0  0  0  0  0  0  0  0  0
   -9.7346    0.2173  -12.2082 H   0  0  0  0  0  0  0  0  0  0  0  0
  -11.5529   -0.2596   -8.3536 H   0  0  0  0  0  0  0  0  0  0  0  0
  -13.8735    0.1450   -5.5024 H   0  0  0  0  0  0  0  0  0  0  0  0
  -12.3636   -0.0851   -6.4481 H   0  0  0  0  0  0  0  0  0  0  0  0
  -13.1890    1.5103   -6.4481 H   0  0  0  0  0  0  0  0  0  0  0  0
  -15.4030    1.5030   -8.3100 H   0  0  0  0  0  0  0  0  0  0  0  0
  -15.4460    1.2830   -6.6820 H   0  0  0  0  0  0  0  0  0  0  0  0
  -16.5999   -1.2561   -7.3365 H   0  0  0  0  0  0  0  0  0  0  0  0
  -17.1068   -3.6784   -7.0738 H   0  0  0  0  0  0  0  0  0  0  0  0
  -12.9044   -4.6005   -7.3609 H   0  0  0  0  0  0  0  0  0  0  0  0
  -12.3769   -2.1790   -7.6202 H   0  0  0  0  0  0  0  0  0  0  0  0
  -15.2492    0.8986  -10.0426 H   0  0  0  0  0  0  0  0  0  0  0  0
  -12.0473    3.1614  -12.6080 H   0  0  0  0  0  0  0  0  0  0  0  0
  -10.3930    2.7193  -12.0185 H   0  0  0  0  0  0  0  0  0  0  0  0
  -11.4092    2.6952  -14.9058 H   0  0  0  0  0  0  0  0  0  0  0  0
  -10.1376    3.7609  -14.1723 H   0  0  0  0  0  0  0  0  0  0  0  0
   -5.4782    0.7731  -15.8396 H   0  0  0  0  0  0  0  0  0  0  0  0
   -6.3292    4.8257  -18.2625 H   0  0  0  0  0  0  0  0  0  0  0  0
   -9.1980    7.6267  -16.6145 H   0  0  0  0  0  0  0  0  0  0  0  0
  1  2  1  0
  2  3  1  0
  3  4  2  0
  4  5  1  0
  5  6  1  0
  6  7  2  0
  7  8  1  0
  8  9  1  0
  9 10  1  0
 10 11  1  0
 11 12  1  0
 12 13  1  0
 13 14  2  0
 14 15  1  0
 15 16  2  0
 16 17  1  0
 17 18  1  0
 17 19  1  6
 17 20  1  0
 20 21  1  0
 21 22  2  0
 22 23  1  0
 23 24  1  0
 23 25  2  0
 25 26  1  0
 16 27  1  0
 27 28  2  0
 12 29  1  0
 29 30  1  0
  8 31  2  0
 31 32  1  0
 32 33  2  0
 33 34  1  0
 34 35  1  0
  4 36  1  0
 36 37  2  0
 37  2  1  0
 35  5  2  0
 34  7  1  0
 30  9  1  0
 28 13  1  0
 26 20  2  0
  1 38  1  0
  1 39  1  0
  1 40  1  0
  3 41  1  0
  6 42  1  0
 10 43  1  0
 10 44  1  0
 11 45  1  0
 11 46  1  0
 15 47  1  0
 18 48  1  0
 18 49  1  0
 18 50  1  0
 19 51  1  0
 19 52  1  0
 21 53  1  0
 22 54  1  0
 25 55  1  0
 26 56  1  0
 27 57  1  0
 29 58  1  0
 29 59  1  0
 30 60  1  0
 30 61  1  0
 32 62  1  0
 35 63  1  0
 36 64  1  0
M  END
>  <meeko>  (3) 
{"is_sidechain": false}

>  <vina_affinity_kcal_mol>  (3) 
-9.501

>  <pose_rank>  (3) 
3

$$$$

     RDKit          3D

 64 69  0  0  0  0  0  0  0  0999 V2000
   -4.8780    2.7730  -16.7850 C   0  0  0  0  0  0  0  0  0  0  0  0
   -6.2550    3.1610  -16.5970 N   0  0  0  0  0  0  0  0  0  0  0  0
   -7.1170    2.6940  -15.6490 C   0  0  0  0  0  0  0  0  0  0  0  0
   -8.3080    3.3500  -15.8640 C   0  0  0  0  0  0  0  0  0  0  0  0
   -9.5560    3.2170  -15.1270 C   0  0  0  0  0  0  0  0  0  0  0  0
   -9.8120    2.2880  -14.0860 C   0  0  0  0  0  0  0  0  0  0  0  0
  -11.1180    2.4800  -13.6680 C   0  0  0  0  0  0  0  0  0  0  0  0
  -11.9630    1.8800  -12.6680 C   0  0  0  0  0  0  0  0  0  0  0  0
  -11.6550    0.7700  -11.8940 N   0  0  0  0  0  0  0  0  0  0  0  0
  -12.0540    0.7410  -10.4710 C   0  0  0  0  0  0  0  0  0  0  0  0
  -12.4430   -0.6770  -10.0140 C   0  0  0  0  0  0  0  0  0  0  0  0
  -11.3800   -1.6410  -10.3440 N   0  0  0  0  0  0  0  0  0  0  0  0
  -11.6160   -2.9250   -9.8420 C   0  0  0  0  0  0  0  0  0  0  0  0
  -12.4230   -3.7510  -10.5240 N   0  0  0  0  0  0  0  0  0  0  0  0
  -12.6550   -4.9770  -10.0050 C   0  0  0  0  0  0  0  0  0  0  0  0
  -12.1120   -5.4500   -8.8260 C   0  0  0  0  0  0  0  0  0  0  0  0
  -12.4130   -6.8400   -8.2860 C   0  0  1  0  0  0  0  0  0  0  0  0
  -12.3940   -7.9400   -9.3790 C   0  0  0  0  0  0  0  0  0  0  0  0
  -11.3190   -7.2050   -7.3710 N   0  0  0  0  0  0  0  0  0  0  0  0
  -13.8080   -6.9050   -7.6120 C   0  0  0  0  0  0  0  0  0  0  0  0
  -14.4990   -8.1370   -7.5630 C   0  0  0  0  0  0  0  0  0  0  0  0
  -15.7590   -8.2390   -6.9690 C   0  0  0  0  0  0  0  0  0  0  0  0
  -16.3470   -7.1130   -6.4140 C   0  0  0  0  0  0  0  0  0  0  0  0
  -17.5550   -7.2090   -5.8450 F   0  0  0  0  0  0  0  0  0  0  0  0
  -15.6990   -5.8860   -6.4450 C   0  0  0  0  0  0  0  0  0  0  0  0
  -14.4380   -5.7800   -7.0400 C   0  0  0  0  0  0  0  0  0  0  0  0
  -11.3200   -4.5160   -8.1930 C   0  0  0  0  0  0  0  0  0  0  0  0
  -11.0550   -3.2820   -8.6770 N   0  0  0  0  0  0  0  0  0  0  0  0
  -10.9740   -1.6260  -11.7570 C   0  0  0  0  0  0  0  0  0  0  0  0
  -10.6050   -0.2010  -12.2220 C   0  0  0  0  0  0  0  0  0  0  0  0
  -13.1290    2.4390  -12.4840 N   0  0  0  0  0  0  0  0  0  0  0  0
  -13.5160    3.5030  -13.2540 C   0  0  0  0  0  0  0  0  0  0  0  0
  -12.8360    4.0710  -14.1980 N   0  0  0  0  0  0  0  0  0  0  0  0
  -11.6240    3.5310  -14.3800 N   0  0  0  0  0  0  0  0  0  0  0  0
  -10.6990    3.9650  -15.2900 C   0  0  0  0  0  0  0  0  0  0  0  0
   -8.0560    4.1920  -16.9660 C   0  0  0  0  0  0  0  0  0  0  0  0
   -6.8010    4.0800  -17.4160 N   0  0  0  0  0  0  0  0  0  0  0  0
   -4.3980    2.6378  -15.8045 H   0  0  0  0  0  0  0  0  0  0  0  0
   -4.8367    1.8282  -17.3469 H   0  0  0  0  0  0  0  0  0  0  0  0
   -4.3495    3.5572  -17.3469 H   0  0  0  0  0  0  0  0  0  0  0  0
   -6.9041    1.9458  -14.8713 H   0  0  0  0  0  0  0  0  0  0  0  0
   -9.1024    1.5498  -13.6841 H   0  0  0  0  0  0  0  0  0  0  0  0
  -11.2116    1.0939   -9.8579 H   0  0  0  0  0  0  0  0  0  0  0  0
  -12.9323    1.3920  -10.3493 H   0  0  0  0  0  0  0  0  0  0  0  0
  -12.6027   -0.6744   -8.9257 H   0  0  0  0  0  0  0  0  0  0  0  0
  -13.3648   -0.9756  -10.5347 H   0  0  0  0  0  0  0  0  0  0  0  0
  -13.3255   -5.6477  -10.5623 H   0  0  0  0  0  0  0  0  0  0  0  0
  -12.3769   -8.9309   -8.9017 H   0  0  0  0  0  0  0  0  0  0  0  0
  -13.2938   -7.8502  -10.0053 H   0  0  0  0  0  0  0  0  0  0  0  0
  -11.4978   -7.8192  -10.0053 H   0  0  0  0  0  0  0  0  0  0  0  0
  -11.1140   -6.4280   -6.7460 H   0  0  0  0  0  0  0  0  0  0  0  0
  -10.4740   -7.4090   -7.8990 H   0  0  0  0  0  0  0  0  0  0  0  0
  -14.0354   -9.0331   -8.0013 H   0  0  0  0  0  0  0  0  0  0  0  0
  -16.2814   -9.2067   -6.9418 H   0  0  0  0  0  0  0  0  0  0  0  0
  -16.1762   -4.9991   -6.0026 H   0  0  0  0  0  0  0  0  0  0  0  0
  -13.9297   -4.8047   -7.0623 H   0  0  0  0  0  0  0  0  0  0  0  0
  -10.8727   -4.7941   -7.2273 H   0  0  0  0  0  0  0  0  0  0  0  0
  -10.1002   -2.2818  -11.8853 H   0  0  0  0  0  0  0  0  0  0  0  0
  -11.8203   -1.9800  -12.3641 H   0  0  0  0  0  0  0  0  0  0  0  0
   -9.6712    0.1041  -11.7271 H   0  0  0  0  0  0  0  0  0  0  0  0
  -10.4864   -0.2189  -13.3154 H   0  0  0  0  0  0  0  0  0  0  0  0
  -14.5127    3.9204  -13.0482 H   0  0  0  0  0  0  0  0  0  0  0  0
  -10.8440    4.7714  -16.0240 H   0  0  0  0  0  0  0  0  0  0  0  0
   -8.8064    4.8651  -17.4063 H   0  0  0  0  0  0  0  0  0  0  0  0
  1  2  1  0
  2  3  1  0
  3  4  2  0
  4  5  1  0
  5  6  1  0
  6  7  2  0
  7  8  1  0
  8  9  1  0
  9 10  1  0
 10 11  1  0
 11 12  1  0
 12 13  1  0
 13 14  2  0
 14 15  1  0
 15 16  2  0
 16 17  1  0
 17 18  1  0
 17 19  1  1
 17 20  1  0
 20 21  1  0
 21 22  2  0
 22 23  1  0
 23 24  1  0
 23 25  2  0
 25 26  1  0
 16 27  1  0
 27 28  2  0
 12 29  1  0
 29 30  1  0
  8 31  2  0
 31 32  1  0
 32 33  2  0
 33 34  1  0
 34 35  1  0
  4 36  1  0
 36 37  2  0
 37  2  1  0
 35  5  2  0
 34  7  1  0
 30  9  1  0
 28 13  1  0
 26 20  2  0
  1 38  1  0
  1 39  1  0
  1 40  1  0
  3 41  1  0
  6 42  1  0
 10 43  1  0
 10 44  1  0
 11 45  1  0
 11 46  1  0
 15 47  1  0
 18 48  1  0
 18 49  1  0
 18 50  1  0
 19 51  1  0
 19 52  1  0
 21 53  1  0
 22 54  1  0
 25 55  1  0
 26 56  1  0
 27 57  1  0
 29 58  1  0
 29 59  1  0
 30 60  1  0
 30 61  1  0
 32 62  1  0
 35 63  1  0
 36 64  1  0
M  END
>  <meeko>  (4) 
{"is_sidechain": false}

>  <vina_affinity_kcal_mol>  (4) 
-9.456

>  <pose_rank>  (4) 
4

$$$$

     RDKit          3D

 64 69  0  0  0  0  0  0  0  0999 V2000
  -18.7150   -0.3500   -5.9270 C   0  0  0  0  0  0  0  0  0  0  0  0
  -17.5040   -0.3830   -6.7120 N   0  0  0  0  0  0  0  0  0  0  0  0
  -16.8540   -1.4900   -7.1720 C   0  0  0  0  0  0  0  0  0  0  0  0
  -15.7590   -1.0250   -7.8630 C   0  0  0  0  0  0  0  0  0  0  0  0
  -14.7350   -1.7950   -8.5530 C   0  0  0  0  0  0  0  0  0  0  0  0
  -13.6380   -1.2590   -9.2750 C   0  0  0  0  0  0  0  0  0  0  0  0
  -12.9170   -2.3240   -9.7890 C   0  0  0  0  0  0  0  0  0  0  0  0
  -11.7240   -2.4530  -10.5860 C   0  0  0  0  0  0  0  0  0  0  0  0
  -11.0180   -1.4150  -11.1790 N   0  0  0  0  0  0  0  0  0  0  0  0
   -9.5410   -1.4530  -11.1900 C   0  0  0  0  0  0  0  0  0  0  0  0
   -8.9630   -0.8390  -12.4790 C   0  0  0  0  0  0  0  0  0  0  0  0
   -9.5160    0.5060  -12.7100 N   0  0  0  0  0  0  0  0  0  0  0  0
   -8.9360    1.1680  -13.7970 C   0  0  0  0  0  0  0  0  0  0  0  0
   -8.3210    2.3420  -13.5910 N   0  0  0  0  0  0  0  0  0  0  0  0
   -7.7910    2.9730  -14.6610 C   0  0  0  0  0  0  0  0  0  0  0  0
   -7.8240    2.4930  -15.9560 C   0  0  0  0  0  0  0  0  0  0  0  0
   -7.2140    3.2510  -17.1270 C   0  0  1  0  0  0  0  0  0  0  0  0
   -5.9020    3.9920  -16.7600 C   0  0  0  0  0  0  0  0  0  0  0  0
   -6.8120    2.2570  -18.1350 N   0  0  0  0  0  0  0  0  0  0  0  0
   -8.1880    4.3190  -17.6890 C   0  0  0  0  0  0  0  0  0  0  0  0
   -7.7250    5.2400  -18.6570 C   0  0  0  0  0  0  0  0  0  0  0  0
   -8.5670    6.2190  -19.1870 C   0  0  0  0  0  0  0  0  0  0  0  0
   -9.8840    6.2940  -18.7600 C   0  0  0  0  0  0  0  0  0  0  0  0
  -10.6920    7.2330  -19.2680 F   0  0  0  0  0  0  0  0  0  0  0  0
  -10.3730    5.4080  -17.8110 C   0  0  0  0  0  0  0  0  0  0  0  0
   -9.5330    4.4260  -17.2770 C   0  0  0  0  0  0  0  0  0  0  0  0
   -8.4990    1.2960  -16.0620 C   0  0  0  0  0  0  0  0  0  0  0  0
   -9.0400    0.6260  -15.0200 N   0  0  0  0  0  0  0  0  0  0  0  0
  -10.9850    0.5580  -12.7040 C   0  0  0  0  0  0  0  0  0  0  0  0
  -11.5660   -0.0760  -11.4220 C   0  0  0  0  0  0  0  0  0  0  0  0
  -11.2740   -3.6660  -10.7640 N   0  0  0  0  0  0  0  0  0  0  0  0
  -11.9560   -4.7390  -10.2520 C   0  0  0  0  0  0  0  0  0  0  0  0
  -13.0530   -4.7100   -9.5660 N   0  0  0  0  0  0  0  0  0  0  0  0
  -13.5120   -3.4710   -9.3470 N   0  0  0  0  0  0  0  0  0  0  0  0
  -14.6330   -3.1650   -8.6250 C   0  0  0  0  0  0  0  0  0  0  0  0
  -15.8420    0.3780   -7.7600 C   0  0  0  0  0  0  0  0  0  0  0  0
  -16.9090    0.7750   -7.0580 N   0  0  0  0  0  0  0  0  0  0  0  0
  -18.4588   -0.3570   -4.8573 H   0  0  0  0  0  0  0  0  0  0  0  0
  -19.2800    0.5639   -6.1628 H   0  0  0  0  0  0  0  0  0  0  0  0
  -19.3289   -1.2317   -6.1628 H   0  0  0  0  0  0  0  0  0  0  0  0
  -17.1455   -2.5399   -7.0214 H   0  0  0  0  0  0  0  0  0  0  0  0
  -13.4028   -0.1921   -9.4033 H   0  0  0  0  0  0  0  0  0  0  0  0
   -9.1637   -0.8869  -10.3256 H   0  0  0  0  0  0  0  0  0  0  0  0
   -9.2255   -2.5057  -11.1412 H   0  0  0  0  0  0  0  0  0  0  0  0
   -7.8692   -0.7683  -12.3860 H   0  0  0  0  0  0  0  0  0  0  0  0
   -9.2338   -1.4827  -13.3289 H   0  0  0  0  0  0  0  0  0  0  0  0
   -7.2966    3.9404  -14.4887 H   0  0  0  0  0  0  0  0  0  0  0  0
   -5.8055    4.0465  -15.6656 H   0  0  0  0  0  0  0  0  0  0  0  0
   -5.0433    3.4455  -17.1770 H   0  0  0  0  0  0  0  0  0  0  0  0
   -5.9266    5.0096  -17.1770 H   0  0  0  0  0  0  0  0  0  0  0  0
   -6.4830    1.4100  -17.6770 H   0  0  0  0  0  0  0  0  0  0  0  0
   -6.0470    2.6210  -18.6990 H   0  0  0  0  0  0  0  0  0  0  0  0
   -6.6810    5.1838  -18.9990 H   0  0  0  0  0  0  0  0  0  0  0  0
   -8.1880    6.9268  -19.9389 H   0  0  0  0  0  0  0  0  0  0  0  0
  -11.4195    5.4779  -17.4793 H   0  0  0  0  0  0  0  0  0  0  0  0
   -9.9266    3.7267  -16.5247 H   0  0  0  0  0  0  0  0  0  0  0  0
   -8.6048    0.8552  -17.0642 H   0  0  0  0  0  0  0  0  0  0  0  0
  -11.3061    1.6085  -12.7609 H   0  0  0  0  0  0  0  0  0  0  0  0
  -11.3550   -0.0108  -13.5698 H   0  0  0  0  0  0  0  0  0  0  0  0
  -11.3234    0.5689  -10.5645 H   0  0  0  0  0  0  0  0  0  0  0  0
  -12.6544   -0.1705  -11.5506 H   0  0  0  0  0  0  0  0  0  0  0  0
  -11.5243   -5.7321  -10.4450 H   0  0  0  0  0  0  0  0  0  0  0  0
  -15.3314   -3.8887   -8.1795 H   0  0  0  0  0  0  0  0  0  0  0  0
  -15.1116    1.0687   -8.2066 H   0  0  0  0  0  0  0  0  0  0  0  0
  1  2  1  0
  2  3  1  0
  3  4  2  0
  4  5  1  0
  5  6  1  0
  6  7  2  0
  7  8  1  0
  8  9  1  0
  9 10  1  0
 10 11  1  0
 11 12  1  0
 12 13  1  0
 13 14  2  0
 14 15  1  0
 15 16  2  0
 16 17  1  0
 17 18  1  0
 17 19  1  6
 17 20  1  0
 20 21  1  0
 21 22  2  0
 22 23  1  0
 23 24  1  0
 23 25  2  0
 25 26  1  0
 16 27  1  0
 27 28  2  0
 12 29  1  0
 29 30  1  0
  8 31  2  0
 31 32  1  0
 32 33  2  0
 33 34  1  0
 34 35  1  0
  4 36  1  0
 36 37  2  0
 37  2  1  0
 35  5  2  0
 34  7  1  0
 30  9  1  0
 28 13  1  0
 26 20  2  0
  1 38  1  0
  1 39  1  0
  1 40  1  0
  3 41  1  0
  6 42  1  0
 10 43  1  0
 10 44  1  0
 11 45  1  0
 11 46  1  0
 15 47  1  0
 18 48  1  0
 18 49  1  0
 18 50  1  0
 19 51  1  0
 19 52  1  0
 21 53  1  0
 22 54  1  0
 25 55  1  0
 26 56  1  0
 27 57  1  0
 29 58  1  0
 29 59  1  0
 30 60  1  0
 30 61  1  0
 32 62  1  0
 35 63  1  0
 36 64  1  0
M  END
>  <meeko>  (5) 
{"is_sidechain": false}

>  <vina_affinity_kcal_mol>  (5) 
-9.424

>  <pose_rank>  (5) 
5

$$$$

     RDKit          3D

 64 69  0  0  0  0  0  0  0  0999 V2000
  -10.0550    8.0710  -21.5120 C   0  0  0  0  0  0  0  0  0  0  0  0
   -9.6230    7.5740  -20.2280 N   0  0  0  0  0  0  0  0  0  0  0  0
   -9.1140    6.3390  -19.9540 C   0  0  0  0  0  0  0  0  0  0  0  0
   -8.8500    6.3290  -18.6040 C   0  0  0  0  0  0  0  0  0  0  0  0
   -8.2960    5.2490  -17.8020 C   0  0  0  0  0  0  0  0  0  0  0  0
   -9.0310    4.3890  -16.9450 C   0  0  0  0  0  0  0  0  0  0  0  0
   -8.1290    3.5160  -16.3580 C   0  0  0  0  0  0  0  0  0  0  0  0
   -8.2330    2.4260  -15.4230 C   0  0  0  0  0  0  0  0  0  0  0  0
   -9.3770    2.0400  -14.7370 N   0  0  0  0  0  0  0  0  0  0  0  0
   -9.6610    0.6030  -14.5450 C   0  0  0  0  0  0  0  0  0  0  0  0
  -10.3370    0.3290  -13.1890 C   0  0  0  0  0  0  0  0  0  0  0  0
  -11.5200    1.1880  -13.0130 N   0  0  0  0  0  0  0  0  0  0  0  0
  -12.2520    0.9000  -11.8570 C   0  0  0  0  0  0  0  0  0  0  0  0
  -11.7640    0.0060  -10.9840 N   0  0  0  0  0  0  0  0  0  0  0  0
  -12.5020   -0.2730   -9.8870 C   0  0  0  0  0  0  0  0  0  0  0  0
  -13.7210    0.3030   -9.5900 C   0  0  0  0  0  0  0  0  0  0  0  0
  -14.5130   -0.0550   -8.3400 C   0  0  1  0  0  0  0  0  0  0  0  0
  -15.5210    1.0450   -7.9180 C   0  0  0  0  0  0  0  0  0  0  0  0
  -15.3500   -1.2210   -8.6670 N   0  0  0  0  0  0  0  0  0  0  0  0
  -13.5850   -0.3020   -7.1240 C   0  0  0  0  0  0  0  0  0  0  0  0
  -13.4640   -1.6090   -6.5980 C   0  0  0  0  0  0  0  0  0  0  0  0
  -12.6420   -1.8760   -5.5010 C   0  0  0  0  0  0  0  0  0  0  0  0
  -11.9280   -0.8430   -4.9130 C   0  0  0  0  0  0  0  0  0  0  0  0
  -11.1400   -1.0980   -3.8610 F   0  0  0  0  0  0  0  0  0  0  0  0
  -12.0230    0.4520   -5.4010 C   0  0  0  0  0  0  0  0  0  0  0  0
  -12.8460    0.7240   -6.4990 C   0  0  0  0  0  0  0  0  0  0  0  0
  -14.1430    1.1850  -10.5610 C   0  0  0  0  0  0  0  0  0  0  0  0
  -13.4360    1.5000  -11.6700 N   0  0  0  0  0  0  0  0  0  0  0  0
  -11.2530    2.6210  -13.1980 C   0  0  0  0  0  0  0  0  0  0  0  0
  -10.5550    2.8950  -14.5490 C   0  0  0  0  0  0  0  0  0  0  0  0
   -7.1410    1.7440  -15.2040 N   0  0  0  0  0  0  0  0  0  0  0  0
   -5.9660    2.1080  -15.8070 C   0  0  0  0  0  0  0  0  0  0  0  0
   -5.7800    3.0970  -16.6210 N   0  0  0  0  0  0  0  0  0  0  0  0
   -6.8970    3.7880  -16.8820 N   0  0  0  0  0  0  0  0  0  0  0  0
   -6.9790    4.8560  -17.7330 C   0  0  0  0  0  0  0  0  0  0  0  0
   -9.2350    7.6090  -18.1560 C   0  0  0  0  0  0  0  0  0  0  0  0
   -9.7070    8.3740  -19.1470 N   0  0  0  0  0  0  0  0  0  0  0  0
  -10.7702    8.8938  -21.3650 H   0  0  0  0  0  0  0  0  0  0  0  0
   -9.1842    8.4383  -22.0749 H   0  0  0  0  0  0  0  0  0  0  0  0
  -10.5399    7.2598  -22.0749 H   0  0  0  0  0  0  0  0  0  0  0  0
   -8.9483    5.5180  -20.6671 H   0  0  0  0  0  0  0  0  0  0  0  0
  -10.1179    4.4113  -16.7774 H   0  0  0  0  0  0  0  0  0  0  0  0
  -10.3276    0.2612  -15.3505 H   0  0  0  0  0  0  0  0  0  0  0  0
   -8.7045    0.0601  -14.5657 H   0  0  0  0  0  0  0  0  0  0  0  0
  -10.6472   -0.7255  -13.1469 H   0  0  0  0  0  0  0  0  0  0  0  0
   -9.6185    0.5484  -12.3855 H   0  0  0  0  0  0  0  0  0  0  0  0
  -12.1021   -1.0134   -9.1786 H   0  0  0  0  0  0  0  0  0  0  0  0
  -15.5687    1.0970   -6.8203 H   0  0  0  0  0  0  0  0  0  0  0  0
  -15.1925    2.0160   -8.3172 H   0  0  0  0  0  0  0  0  0  0  0  0
  -16.5169    0.8024   -8.3172 H   0  0  0  0  0  0  0  0  0  0  0  0
  -15.1380   -1.9900   -8.0360 H   0  0  0  0  0  0  0  0  0  0  0  0
  -15.1560   -1.5370   -9.6150 H   0  0  0  0  0  0  0  0  0  0  0  0
  -14.0283   -2.4314   -7.0619 H   0  0  0  0  0  0  0  0  0  0  0  0
  -12.5615   -2.8994   -5.1059 H   0  0  0  0  0  0  0  0  0  0  0  0
  -11.4524    1.2634   -4.9256 H   0  0  0  0  0  0  0  0  0  0  0  0
  -12.9179    1.7532   -6.8806 H   0  0  0  0  0  0  0  0  0  0  0  0
  -15.1227    1.6662  -10.4246 H   0  0  0  0  0  0  0  0  0  0  0  0
  -12.2063    3.1691  -13.1701 H   0  0  0  0  0  0  0  0  0  0  0  0
  -10.5862    2.9559  -12.3898 H   0  0  0  0  0  0  0  0  0  0  0  0
  -11.2684    2.7025  -15.3639 H   0  0  0  0  0  0  0  0  0  0  0  0
  -10.2213    3.9431  -14.5551 H   0  0  0  0  0  0  0  0  0  0  0  0
   -5.0845    1.4927  -15.5740 H   0  0  0  0  0  0  0  0  0  0  0  0
   -6.1381    5.3201  -18.2691 H   0  0  0  0  0  0  0  0  0  0  0  0
   -9.1563    7.9411  -17.1103 H   0  0  0  0  0  0  0  0  0  0  0  0
  1  2  1  0
  2  3  1  0
  3  4  2  0
  4  5  1  0
  5  6  1  0
  6  7  2  0
  7  8  1  0
  8  9  1  0
  9 10  1  0
 10 11  1  0
 11 12  1  0
 12 13  1  0
 13 14  2  0
 14 15  1  0
 15 16  2  0
 16 17  1  0
 17 18  1  0
 17 19  1  6
 17 20  1  0
 20 21  1  0
 21 22  2  0
 22 23  1  0
 23 24  1  0
 23 25  2  0
 25 26  1  0
 16 27  1  0
 27 28  2  0
 12 29  1  0
 29 30  1  0
  8 31  2  0
 31 32  1  0
 32 33  2  0
 33 34  1  0
 34 35  1  0
  4 36  1  0
 36 37  2  0
 37  2  1  0
 35  5  2  0
 34  7  1  0
 30  9  1  0
 28 13  1  0
 26 20  2  0
  1 38  1  0
  1 39  1  0
  1 40  1  0
  3 41  1  0
  6 42  1  0
 10 43  1  0
 10 44  1  0
 11 45  1  0
 11 46  1  0
 15 47  1  0
 18 48  1  0
 18 49  1  0
 18 50  1  0
 19 51  1  0
 19 52  1  0
 21 53  1  0
 22 54  1  0
 25 55  1  0
 26 56  1  0
 27 57  1  0
 29 58  1  0
 29 59  1  0
 30 60  1  0
 30 61  1  0
 32 62  1  0
 35 63  1  0
 36 64  1  0
M  END
>  <meeko>  (6) 
{"is_sidechain": false}

>  <vina_affinity_kcal_mol>  (6) 
-9.423

>  <pose_rank>  (6) 
6

$$$$

     RDKit          3D

 64 69  0  0  0  0  0  0  0  0999 V2000
   -5.0920   -8.0120  -12.7880 C   0  0  0  0  0  0  0  0  0  0  0  0
   -4.9870   -7.1490  -13.9400 N   0  0  0  0  0  0  0  0  0  0  0  0
   -4.2500   -6.0070  -14.0450 C   0  0  0  0  0  0  0  0  0  0  0  0
   -4.4650   -5.5340  -15.3190 C   0  0  0  0  0  0  0  0  0  0  0  0
   -3.9120   -4.3410  -15.9430 C   0  0  0  0  0  0  0  0  0  0  0  0
   -4.4430   -3.0290  -15.8450 C   0  0  0  0  0  0  0  0  0  0  0  0
   -3.6330   -2.1940  -16.5960 C   0  0  0  0  0  0  0  0  0  0  0  0
   -3.6240   -0.7850  -16.8920 C   0  0  0  0  0  0  0  0  0  0  0  0
   -4.6060    0.1320  -16.5440 N   0  0  0  0  0  0  0  0  0  0  0  0
   -4.2140    1.4840  -16.0960 C   0  0  0  0  0  0  0  0  0  0  0  0
   -5.2190    2.5550  -16.5580 C   0  0  0  0  0  0  0  0  0  0  0  0
   -6.5910    2.1850  -16.1700 N   0  0  0  0  0  0  0  0  0  0  0  0
   -7.5360    3.1760  -16.4500 C   0  0  0  0  0  0  0  0  0  0  0  0
   -7.1840    4.2110  -17.2280 N   0  0  0  0  0  0  0  0  0  0  0  0
   -8.1080    5.1670  -17.4620 C   0  0  0  0  0  0  0  0  0  0  0  0
   -9.3980    5.1550  -16.9680 C   0  0  0  0  0  0  0  0  0  0  0  0
  -10.3970    6.2660  -17.2610 C   0  0  1  0  0  0  0  0  0  0  0  0
  -11.8670    5.7720  -17.3040 C   0  0  0  0  0  0  0  0  0  0  0  0
  -10.3540    7.2080  -16.1300 N   0  0  0  0  0  0  0  0  0  0  0  0
  -10.1150    6.9480  -18.6240 C   0  0  0  0  0  0  0  0  0  0  0  0
  -10.4280    6.2640  -19.8210 C   0  0  0  0  0  0  0  0  0  0  0  0
  -10.1870    6.8400  -21.0700 C   0  0  0  0  0  0  0  0  0  0  0  0
   -9.6310    8.1070  -21.1430 C   0  0  0  0  0  0  0  0  0  0  0  0
   -9.3990    8.6610  -22.3400 F   0  0  0  0  0  0  0  0  0  0  0  0
   -9.3090    8.8090  -19.9900 C   0  0  0  0  0  0  0  0  0  0  0  0
   -9.5480    8.2350  -18.7370 C   0  0  0  0  0  0  0  0  0  0  0  0
   -9.6490    4.0660  -16.1630 C   0  0  0  0  0  0  0  0  0  0  0  0
   -8.7580    3.0820  -15.9060 N   0  0  0  0  0  0  0  0  0  0  0  0
   -6.9960    0.8430  -16.6120 C   0  0  0  0  0  0  0  0  0  0  0  0
   -5.9770   -0.2290  -16.1680 C   0  0  0  0  0  0  0  0  0  0  0  0
   -2.5910   -0.3390  -17.5550 N   0  0  0  0  0  0  0  0  0  0  0  0
   -1.6130   -1.2020  -17.9760 C   0  0  0  0  0  0  0  0  0  0  0  0
   -1.5700   -2.4810  -17.7900 N   0  0  0  0  0  0  0  0  0  0  0  0
   -2.6060   -2.9520  -17.0840 N   0  0  0  0  0  0  0  0  0  0  0  0
   -2.7810   -4.2600  -16.7230 C   0  0  0  0  0  0  0  0  0  0  0  0
   -5.3480   -6.4660  -15.9000 C   0  0  0  0  0  0  0  0  0  0  0  0
   -5.6690   -7.4560  -15.0600 N   0  0  0  0  0  0  0  0  0  0  0  0
   -5.0187   -7.4095  -11.8706 H   0  0  0  0  0  0  0  0  0  0  0  0
   -6.0602   -8.5337  -12.8077 H   0  0  0  0  0  0  0  0  0  0  0  0
   -4.2771   -8.7506  -12.8077 H   0  0  0  0  0  0  0  0  0  0  0  0
   -3.6135   -5.5558  -13.2696 H   0  0  0  0  0  0  0  0  0  0  0  0
   -5.3356   -2.7296  -15.2761 H   0  0  0  0  0  0  0  0  0  0  0  0
   -4.1635    1.4940  -14.9972 H   0  0  0  0  0  0  0  0  0  0  0  0
   -3.2356    1.7202  -16.5398 H   0  0  0  0  0  0  0  0  0  0  0  0
   -4.9597    3.5176  -16.0932 H   0  0  0  0  0  0  0  0  0  0  0  0
   -5.1713    2.6347  -17.6541 H   0  0  0  0  0  0  0  0  0  0  0  0
   -7.8118    6.0183  -18.0925 H   0  0  0  0  0  0  0  0  0  0  0  0
  -12.2417    5.6461  -16.2775 H   0  0  0  0  0  0  0  0  0  0  0  0
  -12.4869    6.5112  -17.8325 H   0  0  0  0  0  0  0  0  0  0  0  0
  -11.9147    4.8085  -17.8325 H   0  0  0  0  0  0  0  0  0  0  0  0
   -9.3930    7.3340  -15.8190 H   0  0  0  0  0  0  0  0  0  0  0  0
  -10.8870    6.8390  -15.3460 H   0  0  0  0  0  0  0  0  0  0  0  0
  -10.8701    5.2582  -19.7674 H   0  0  0  0  0  0  0  0  0  0  0  0
  -10.4370    6.2914  -21.9901 H   0  0  0  0  0  0  0  0  0  0  0  0
   -8.8671    9.8138  -20.0612 H   0  0  0  0  0  0  0  0  0  0  0  0
   -9.2901    8.7953  -17.8262 H   0  0  0  0  0  0  0  0  0  0  0  0
  -10.6427    3.9917  -15.6971 H   0  0  0  0  0  0  0  0  0  0  0  0
   -7.9781    0.6046  -16.1777 H   0  0  0  0  0  0  0  0  0  0  0  0
   -7.0436    0.8406  -17.7110 H   0  0  0  0  0  0  0  0  0  0  0  0
   -6.0291   -0.3382  -15.0747 H   0  0  0  0  0  0  0  0  0  0  0  0
   -6.2322   -1.1724  -16.6728 H   0  0  0  0  0  0  0  0  0  0  0  0
   -0.7739   -0.7587  -18.5323 H   0  0  0  0  0  0  0  0  0  0  0  0
   -2.1308   -5.1007  -17.0068 H   0  0  0  0  0  0  0  0  0  0  0  0
   -5.7302   -6.3880  -16.9285 H   0  0  0  0  0  0  0  0  0  0  0  0
  1  2  1  0
  2  3  1  0
  3  4  2  0
  4  5  1  0
  5  6  1  0
  6  7  2  0
  7  8  1  0
  8  9  1  0
  9 10  1  0
 10 11  1  0
 11 12  1  0
 12 13  1  0
 13 14  2  0
 14 15  1  0
 15 16  2  0
 16 17  1  0
 17 18  1  0
 17 19  1  1
 17 20  1  0
 20 21  1  0
 21 22  2  0
 22 23  1  0
 23 24  1  0
 23 25  2  0
 25 26  1  0
 16 27  1  0
 27 28  2  0
 12 29  1  0
 29 30  1  0
  8 31  2  0
 31 32  1  0
 32 33  2  0
 33 34  1  0
 34 35  1  0
  4 36  1  0
 36 37  2  0
 37  2  1  0
 35  5  2  0
 34  7  1  0
 30  9  1  0
 28 13  1  0
 26 20  2  0
  1 38  1  0
  1 39  1  0
  1 40  1  0
  3 41  1  0
  6 42  1  0
 10 43  1  0
 10 44  1  0
 11 45  1  0
 11 46  1  0
 15 47  1  0
 18 48  1  0
 18 49  1  0
 18 50  1  0
 19 51  1  0
 19 52  1  0
 21 53  1  0
 22 54  1  0
 25 55  1  0
 26 56  1  0
 27 57  1  0
 29 58  1  0
 29 59  1  0
 30 60  1  0
 30 61  1  0
 32 62  1  0
 35 63  1  0
 36 64  1  0
M  END
>  <meeko>  (7) 
{"is_sidechain": false}

>  <vina_affinity_kcal_mol>  (7) 
-9.159

>  <pose_rank>  (7) 
7

$$$$

     RDKit          3D

 64 69  0  0  0  0  0  0  0  0999 V2000
  -18.9220   -0.8690   -6.4730 C   0  0  0  0  0  0  0  0  0  0  0  0
  -17.5030   -1.0390   -6.6720 N   0  0  0  0  0  0  0  0  0  0  0  0
  -16.8840   -2.0470   -7.3500 C   0  0  0  0  0  0  0  0  0  0  0  0
  -15.5360   -1.7860   -7.2690 C   0  0  0  0  0  0  0  0  0  0  0  0
  -14.4330   -2.5540   -7.8270 C   0  0  0  0  0  0  0  0  0  0  0  0
  -13.3660   -2.0330   -8.6020 C   0  0  0  0  0  0  0  0  0  0  0  0
  -12.5450   -3.0930   -8.9470 C   0  0  0  0  0  0  0  0  0  0  0  0
  -11.3240   -3.2300   -9.6990 C   0  0  0  0  0  0  0  0  0  0  0  0
  -10.6920   -2.2300  -10.4250 N   0  0  0  0  0  0  0  0  0  0  0  0
   -9.2170   -2.1400  -10.4090 C   0  0  0  0  0  0  0  0  0  0  0  0
   -8.6580   -1.6680  -11.7640 C   0  0  0  0  0  0  0  0  0  0  0  0
   -9.3160   -0.4230  -12.1950 N   0  0  0  0  0  0  0  0  0  0  0  0
   -8.7650    0.1260  -13.3570 C   0  0  0  0  0  0  0  0  0  0  0  0
   -7.9330    1.1730  -13.2510 N   0  0  0  0  0  0  0  0  0  0  0  0
   -7.4340    1.7000  -14.3910 C   0  0  0  0  0  0  0  0  0  0  0  0
   -7.7070    1.2330  -15.6610 C   0  0  0  0  0  0  0  0  0  0  0  0
   -7.1200    1.8710  -16.9120 C   0  0  1  0  0  0  0  0  0  0  0  0
   -5.6270    2.2610  -16.7580 C   0  0  0  0  0  0  0  0  0  0  0  0
   -7.1310    0.8520  -17.9740 N   0  0  0  0  0  0  0  0  0  0  0  0
   -7.8810    3.1630  -17.3090 C   0  0  0  0  0  0  0  0  0  0  0  0
   -7.2170    4.1530  -18.0690 C   0  0  0  0  0  0  0  0  0  0  0  0
   -7.8630    5.3330  -18.4450 C   0  0  0  0  0  0  0  0  0  0  0  0
   -9.1810    5.5410  -18.0690 C   0  0  0  0  0  0  0  0  0  0  0  0
   -9.8020    6.6710  -18.4280 F   0  0  0  0  0  0  0  0  0  0  0  0
   -9.8640    4.5920  -17.3210 C   0  0  0  0  0  0  0  0  0  0  0  0
   -9.2190    3.4100  -16.9420 C   0  0  0  0  0  0  0  0  0  0  0  0
   -8.5900    0.1750  -15.6600 C   0  0  0  0  0  0  0  0  0  0  0  0
   -9.1090   -0.3890  -14.5470 N   0  0  0  0  0  0  0  0  0  0  0  0
  -10.7840   -0.4980  -12.2180 C   0  0  0  0  0  0  0  0  0  0  0  0
  -11.3440   -0.9920  -10.8660 C   0  0  0  0  0  0  0  0  0  0  0  0
  -10.7700   -4.4130   -9.6940 N   0  0  0  0  0  0  0  0  0  0  0  0
  -11.3730   -5.4570   -9.0430 C   0  0  0  0  0  0  0  0  0  0  0  0
  -12.4860   -5.4270   -8.3850 N   0  0  0  0  0  0  0  0  0  0  0  0
  -13.0530   -4.2140   -8.3530 N   0  0  0  0  0  0  0  0  0  0  0  0
  -14.2140   -3.9070   -7.6980 C   0  0  0  0  0  0  0  0  0  0  0  0
  -15.4490   -0.5950   -6.5200 C   0  0  0  0  0  0  0  0  0  0  0  0
  -16.6500   -0.1340   -6.1540 N   0  0  0  0  0  0  0  0  0  0  0  0
  -19.1406   -0.8428   -5.3953 H   0  0  0  0  0  0  0  0  0  0  0  0
  -19.2468    0.0745   -6.9360 H   0  0  0  0  0  0  0  0  0  0  0  0
  -19.4604   -1.7091   -6.9360 H   0  0  0  0  0  0  0  0  0  0  0  0
  -17.3647   -2.8959   -7.8582 H   0  0  0  0  0  0  0  0  0  0  0  0
  -13.2176   -0.9788   -8.8787 H   0  0  0  0  0  0  0  0  0  0  0  0
   -8.9123   -1.4257   -9.6299 H   0  0  0  0  0  0  0  0  0  0  0  0
   -8.8155   -3.1435  -10.2044 H   0  0  0  0  0  0  0  0  0  0  0  0
   -7.5770   -1.4895  -11.6659 H   0  0  0  0  0  0  0  0  0  0  0  0
   -8.8502   -2.4475  -12.5160 H   0  0  0  0  0  0  0  0  0  0  0  0
   -6.7605    2.5650  -14.3002 H   0  0  0  0  0  0  0  0  0  0  0  0
   -5.3736    2.3272  -15.6896 H   0  0  0  0  0  0  0  0  0  0  0  0
   -4.9972    1.4972  -17.2376 H   0  0  0  0  0  0  0  0  0  0  0  0
   -5.4512    3.2352  -17.2376 H   0  0  0  0  0  0  0  0  0  0  0  0
   -7.9020    0.2050  -17.8280 H   0  0  0  0  0  0  0  0  0  0  0  0
   -6.2670    0.3150  -17.9530 H   0  0  0  0  0  0  0  0  0  0  0  0
   -6.1715    3.9909  -18.3700 H   0  0  0  0  0  0  0  0  0  0  0  0
   -7.3294    6.0922  -19.0356 H   0  0  0  0  0  0  0  0  0  0  0  0
  -10.9092    4.7688  -17.0272 H   0  0  0  0  0  0  0  0  0  0  0  0
   -9.7646    2.6618  -16.3483 H   0  0  0  0  0  0  0  0  0  0  0  0
   -8.8935   -0.2392  -16.6328 H   0  0  0  0  0  0  0  0  0  0  0  0
  -11.1902    0.5021  -12.4298 H   0  0  0  0  0  0  0  0  0  0  0  0
  -11.0820   -1.2135  -12.9985 H   0  0  0  0  0  0  0  0  0  0  0  0
  -11.1796   -0.2132  -10.1068 H   0  0  0  0  0  0  0  0  0  0  0  0
  -12.4167   -1.1983  -10.9955 H   0  0  0  0  0  0  0  0  0  0  0  0
  -10.8540   -6.4260   -9.0845 H   0  0  0  0  0  0  0  0  0  0  0  0
  -14.8601   -4.6175   -7.1616 H   0  0  0  0  0  0  0  0  0  0  0  0
  -14.5001   -0.1004   -6.2652 H   0  0  0  0  0  0  0  0  0  0  0  0
  1  2  1  0
  2  3  1  0
  3  4  2  0
  4  5  1  0
  5  6  1  0
  6  7  2  0
  7  8  1  0
  8  9  1  0
  9 10  1  0
 10 11  1  0
 11 12  1  0
 12 13  1  0
 13 14  2  0
 14 15  1  0
 15 16  2  0
 16 17  1  0
 17 18  1  0
 17 19  1  6
 17 20  1  0
 20 21  1  0
 21 22  2  0
 22 23  1  0
 23 24  1  0
 23 25  2  0
 25 26  1  0
 16 27  1  0
 27 28  2  0
 12 29  1  0
 29 30  1  0
  8 31  2  0
 31 32  1  0
 32 33  2  0
 33 34  1  0
 34 35  1  0
  4 36  1  0
 36 37  2  0
 37  2  1  0
 35  5  2  0
 34  7  1  0
 30  9  1  0
 28 13  1  0
 26 20  2  0
  1 38  1  0
  1 39  1  0
  1 40  1  0
  3 41  1  0
  6 42  1  0
 10 43  1  0
 10 44  1  0
 11 45  1  0
 11 46  1  0
 15 47  1  0
 18 48  1  0
 18 49  1  0
 18 50  1  0
 19 51  1  0
 19 52  1  0
 21 53  1  0
 22 54  1  0
 25 55  1  0
 26 56  1  0
 27 57  1  0
 29 58  1  0
 29 59  1  0
 30 60  1  0
 30 61  1  0
 32 62  1  0
 35 63  1  0
 36 64  1  0
M  END
>  <meeko>  (8) 
{"is_sidechain": false}

>  <vina_affinity_kcal_mol>  (8) 
-9.089

>  <pose_rank>  (8) 
8

$$$$

     RDKit          3D

 64 69  0  0  0  0  0  0  0  0999 V2000
  -10.0270    7.7470  -21.7190 C   0  0  0  0  0  0  0  0  0  0  0  0
   -9.9410    7.4970  -20.3010 N   0  0  0  0  0  0  0  0  0  0  0  0
  -10.3600    6.3820  -19.6370 C   0  0  0  0  0  0  0  0  0  0  0  0
  -10.0740    6.6010  -18.3100 C   0  0  0  0  0  0  0  0  0  0  0  0
  -10.3180    5.7210  -17.1770 C   0  0  0  0  0  0  0  0  0  0  0  0
   -9.4390    4.7130  -16.7040 C   0  0  0  0  0  0  0  0  0  0  0  0
  -10.0520    4.0980  -15.6250 C   0  0  0  0  0  0  0  0  0  0  0  0
   -9.6940    3.0330  -14.7240 C   0  0  0  0  0  0  0  0  0  0  0  0
   -8.5750    2.2180  -14.8220 N   0  0  0  0  0  0  0  0  0  0  0  0
   -7.8440    1.8340  -13.5970 C   0  0  0  0  0  0  0  0  0  0  0  0
   -7.2770    0.4050  -13.6930 C   0  0  0  0  0  0  0  0  0  0  0  0
   -6.4840    0.2410  -14.9230 N   0  0  0  0  0  0  0  0  0  0  0  0
   -5.8370   -0.9960  -15.0080 C   0  0  0  0  0  0  0  0  0  0  0  0
   -6.5330   -2.0690  -15.4130 N   0  0  0  0  0  0  0  0  0  0  0  0
   -5.8900   -3.2560  -15.4620 C   0  0  0  0  0  0  0  0  0  0  0  0
   -4.5620   -3.4470  -15.1380 C   0  0  0  0  0  0  0  0  0  0  0  0
   -3.8910   -4.8120  -15.2070 C   0  0  1  0  0  0  0  0  0  0  0  0
   -4.2110   -5.5880  -16.5110 C   0  0  0  0  0  0  0  0  0  0  0  0
   -2.4370   -4.5870  -15.2550 N   0  0  0  0  0  0  0  0  0  0  0  0
   -4.3200   -5.7240  -14.0280 C   0  0  0  0  0  0  0  0  0  0  0  0
   -4.7030   -5.1360  -12.8000 C   0  0  0  0  0  0  0  0  0  0  0  0
   -5.0930   -5.9190  -11.7120 C   0  0  0  0  0  0  0  0  0  0  0  0
   -5.1080   -7.3000  -11.8330 C   0  0  0  0  0  0  0  0  0  0  0  0
   -5.4820   -8.0520  -10.7900 F   0  0  0  0  0  0  0  0  0  0  0  0
   -4.7380   -7.9120  -13.0220 C   0  0  0  0  0  0  0  0  0  0  0  0
   -4.3450   -7.1310  -14.1140 C   0  0  0  0  0  0  0  0  0  0  0  0
   -3.9460   -2.2910  -14.7110 C   0  0  0  0  0  0  0  0  0  0  0  0
   -4.5460   -1.0810  -14.6520 N   0  0  0  0  0  0  0  0  0  0  0  0
   -7.1980    0.6170  -16.1510 C   0  0  0  0  0  0  0  0  0  0  0  0
   -7.7860    2.0410  -16.0470 C   0  0  0  0  0  0  0  0  0  0  0  0
  -10.5080    2.8210  -13.7250 N   0  0  0  0  0  0  0  0  0  0  0  0
  -11.6590    3.5540  -13.6020 C   0  0  0  0  0  0  0  0  0  0  0  0
  -12.0730    4.4930  -14.3900 N   0  0  0  0  0  0  0  0  0  0  0  0
  -11.2340    4.7460  -15.4040 N   0  0  0  0  0  0  0  0  0  0  0  0
  -11.4220    5.7100  -16.3560 C   0  0  0  0  0  0  0  0  0  0  0  0
   -9.4830    7.8810  -18.2800 C   0  0  0  0  0  0  0  0  0  0  0  0
   -9.3990    8.4310  -19.4960 N   0  0  0  0  0  0  0  0  0  0  0  0
  -10.3805    8.7746  -21.8894 H   0  0  0  0  0  0  0  0  0  0  0  0
   -9.0337    7.6207  -22.1745 H   0  0  0  0  0  0  0  0  0  0  0  0
  -10.7323    7.0364  -22.1745 H   0  0  0  0  0  0  0  0  0  0  0  0
  -10.8309    5.4891  -20.0740 H   0  0  0  0  0  0  0  0  0  0  0  0
   -8.4508    4.4650  -17.1186 H   0  0  0  0  0  0  0  0  0  0  0  0
   -7.0123    2.5374  -13.4435 H   0  0  0  0  0  0  0  0  0  0  0  0
   -8.5497    1.8657  -12.7538 H   0  0  0  0  0  0  0  0  0  0  0  0
   -6.6349    0.2120  -12.8210 H   0  0  0  0  0  0  0  0  0  0  0  0
   -8.1150   -0.3072  -13.7150 H   0  0  0  0  0  0  0  0  0  0  0  0
   -6.4674   -4.1352  -15.7839 H   0  0  0  0  0  0  0  0  0  0  0  0
   -4.6191   -6.5777  -16.2580 H   0  0  0  0  0  0  0  0  0  0  0  0
   -4.9508   -5.0260  -17.1000 H   0  0  0  0  0  0  0  0  0  0  0  0
   -3.2901   -5.7108  -17.1000 H   0  0  0  0  0  0  0  0  0  0  0  0
   -2.1450   -4.3980  -16.2110 H   0  0  0  0  0  0  0  0  0  0  0  0
   -1.9430   -5.4190  -14.9390 H   0  0  0  0  0  0  0  0  0  0  0  0
   -4.6934   -4.0406  -12.7003 H   0  0  0  0  0  0  0  0  0  0  0  0
   -5.3866   -5.4432  -10.7647 H   0  0  0  0  0  0  0  0  0  0  0  0
   -4.7537   -9.0087  -13.1057 H   0  0  0  0  0  0  0  0  0  0  0  0
   -4.0512   -7.6218  -15.0535 H   0  0  0  0  0  0  0  0  0  0  0  0
   -2.8940   -2.3571  -14.3966 H   0  0  0  0  0  0  0  0  0  0  0  0
   -6.4972    0.5801  -16.9981 H   0  0  0  0  0  0  0  0  0  0  0  0
   -8.0274   -0.0901  -16.2996 H   0  0  0  0  0  0  0  0  0  0  0  0
   -6.9603    2.7678  -16.0466 H   0  0  0  0  0  0  0  0  0  0  0  0
   -8.4521    2.1990  -16.9080 H   0  0  0  0  0  0  0  0  0  0  0  0
  -12.3006    3.3187  -12.7400 H   0  0  0  0  0  0  0  0  0  0  0  0
  -12.3025    6.3628  -16.4490 H   0  0  0  0  0  0  0  0  0  0  0  0
   -9.1310    8.3715  -17.3605 H   0  0  0  0  0  0  0  0  0  0  0  0
  1  2  1  0
  2  3  1  0
  3  4  2  0
  4  5  1  0
  5  6  1  0
  6  7  2  0
  7  8  1  0
  8  9  1  0
  9 10  1  0
 10 11  1  0
 11 12  1  0
 12 13  1  0
 13 14  2  0
 14 15  1  0
 15 16  2  0
 16 17  1  0
 17 18  1  0
 17 19  1  1
 17 20  1  0
 20 21  1  0
 21 22  2  0
 22 23  1  0
 23 24  1  0
 23 25  2  0
 25 26  1  0
 16 27  1  0
 27 28  2  0
 12 29  1  0
 29 30  1  0
  8 31  2  0
 31 32  1  0
 32 33  2  0
 33 34  1  0
 34 35  1  0
  4 36  1  0
 36 37  2  0
 37  2  1  0
 35  5  2  0
 34  7  1  0
 30  9  1  0
 28 13  1  0
 26 20  2  0
  1 38  1  0
  1 39  1  0
  1 40  1  0
  3 41  1  0
  6 42  1  0
 10 43  1  0
 10 44  1  0
 11 45  1  0
 11 46  1  0
 15 47  1  0
 18 48  1  0
 18 49  1  0
 18 50  1  0
 19 51  1  0
 19 52  1  0
 21 53  1  0
 22 54  1  0
 25 55  1  0
 26 56  1  0
 27 57  1  0
 29 58  1  0
 29 59  1  0
 30 60  1  0
 30 61  1  0
 32 62  1  0
 35 63  1  0
 36 64  1  0
M  END
>  <meeko>  (9) 
{"is_sidechain": false}

>  <vina_affinity_kcal_mol>  (9) 
-9.063

>  <pose_rank>  (9) 
9

$$$$

     RDKit          3D

 64 69  0  0  0  0  0  0  0  0999 V2000
  -10.0420    6.8290  -19.6910 C   0  0  0  0  0  0  0  0  0  0  0  0
  -10.0760    6.1050  -18.4430 N   0  0  0  0  0  0  0  0  0  0  0  0
   -9.2240    5.1180  -18.0430 C   0  0  0  0  0  0  0  0  0  0  0  0
   -9.6500    4.7340  -16.7930 C   0  0  0  0  0  0  0  0  0  0  0  0
   -9.0860    3.7150  -15.9210 C   0  0  0  0  0  0  0  0  0  0  0  0
   -9.8190    2.8650  -15.0530 C   0  0  0  0  0  0  0  0  0  0  0  0
   -8.9070    2.0570  -14.3930 C   0  0  0  0  0  0  0  0  0  0  0  0
   -9.0040    1.0070  -13.4130 C   0  0  0  0  0  0  0  0  0  0  0  0
  -10.1570    0.6070  -12.7520 N   0  0  0  0  0  0  0  0  0  0  0  0
  -10.3930   -0.8310  -12.5030 C   0  0  0  0  0  0  0  0  0  0  0  0
  -11.1090   -1.0700  -11.1610 C   0  0  0  0  0  0  0  0  0  0  0  0
  -12.3300   -0.2520  -11.0680 N   0  0  0  0  0  0  0  0  0  0  0  0
  -13.0930   -0.5170   -9.9270 C   0  0  0  0  0  0  0  0  0  0  0  0
  -12.7720    0.0870   -8.7740 N   0  0  0  0  0  0  0  0  0  0  0  0
  -13.5100   -0.2050   -7.6800 C   0  0  0  0  0  0  0  0  0  0  0  0
  -14.5820   -1.0750   -7.6630 C   0  0  0  0  0  0  0  0  0  0  0  0
  -15.3750   -1.3720   -6.3970 C   0  0  1  0  0  0  0  0  0  0  0  0
  -15.4430   -2.8830   -6.0580 C   0  0  0  0  0  0  0  0  0  0  0  0
  -14.6470   -0.7690   -5.2690 N   0  0  0  0  0  0  0  0  0  0  0  0
  -16.8380   -0.8720   -6.5060 C   0  0  0  0  0  0  0  0  0  0  0  0
  -17.8820   -1.6590   -5.9690 C   0  0  0  0  0  0  0  0  0  0  0  0
  -19.2150   -1.2480   -6.0480 C   0  0  0  0  0  0  0  0  0  0  0  0
  -19.5250   -0.0450   -6.6640 C   0  0  0  0  0  0  0  0  0  0  0  0
  -20.8020    0.3500   -6.7400 F   0  0  0  0  0  0  0  0  0  0  0  0
  -18.5260    0.7530   -7.2040 C   0  0  0  0  0  0  0  0  0  0  0  0
  -17.1910    0.3440   -7.1270 C   0  0  0  0  0  0  0  0  0  0  0  0
  -14.8120   -1.6610   -8.8880 C   0  0  0  0  0  0  0  0  0  0  0  0
  -14.1050   -1.3940  -10.0100 N   0  0  0  0  0  0  0  0  0  0  0  0
  -12.1110    1.1810  -11.3100 C   0  0  0  0  0  0  0  0  0  0  0  0
  -11.3740    1.4210  -12.6460 C   0  0  0  0  0  0  0  0  0  0  0  0
   -7.8960    0.3800  -13.1230 N   0  0  0  0  0  0  0  0  0  0  0  0
   -6.7140    0.7630  -13.6990 C   0  0  0  0  0  0  0  0  0  0  0  0
   -6.5360    1.7210  -14.5520 N   0  0  0  0  0  0  0  0  0  0  0  0
   -7.6680    2.3540  -14.8850 N   0  0  0  0  0  0  0  0  0  0  0  0
   -7.7580    3.3790  -15.7870 C   0  0  0  0  0  0  0  0  0  0  0  0
  -10.7680    5.5520  -16.5310 C   0  0  0  0  0  0  0  0  0  0  0  0
  -11.0300    6.3930  -17.5370 N   0  0  0  0  0  0  0  0  0  0  0  0
   -9.9913    7.9088  -19.4872 H   0  0  0  0  0  0  0  0  0  0  0  0
   -9.1572    6.5229  -20.2685 H   0  0  0  0  0  0  0  0  0  0  0  0
  -10.9516    6.6072  -20.2685 H   0  0  0  0  0  0  0  0  0  0  0  0
   -8.3703    4.7119  -18.6054 H   0  0  0  0  0  0  0  0  0  0  0  0
  -10.9117    2.8501  -14.9270 H   0  0  0  0  0  0  0  0  0  0  0  0
  -11.0150   -1.2354  -13.3152 H   0  0  0  0  0  0  0  0  0  0  0  0
   -9.4163   -1.3355  -12.4636 H   0  0  0  0  0  0  0  0  0  0  0  0
  -11.3799   -2.1331  -11.0809 H   0  0  0  0  0  0  0  0  0  0  0  0
  -10.4304   -0.7857  -10.3433 H   0  0  0  0  0  0  0  0  0  0  0  0
  -13.2367    0.2862   -6.7344 H   0  0  0  0  0  0  0  0  0  0  0  0
  -15.4489   -3.0138   -4.9658 H   0  0  0  0  0  0  0  0  0  0  0  0
  -16.3614   -3.3133   -6.4838 H   0  0  0  0  0  0  0  0  0  0  0  0
  -14.5669   -3.3941   -6.4838 H   0  0  0  0  0  0  0  0  0  0  0  0
  -14.4890    0.2210   -5.4450 H   0  0  0  0  0  0  0  0  0  0  0  0
  -13.7380   -1.2130   -5.1610 H   0  0  0  0  0  0  0  0  0  0  0  0
  -17.6403   -2.6138   -5.4793 H   0  0  0  0  0  0  0  0  0  0  0  0
  -20.0135   -1.8748   -5.6242 H   0  0  0  0  0  0  0  0  0  0  0  0
  -18.7838    1.7049   -7.6914 H   0  0  0  0  0  0  0  0  0  0  0  0
  -16.4040    0.9806   -7.5575 H   0  0  0  0  0  0  0  0  0  0  0  0
  -15.6266   -2.3968   -8.9589 H   0  0  0  0  0  0  0  0  0  0  0  0
  -13.0849    1.6915  -11.3418 H   0  0  0  0  0  0  0  0  0  0  0  0
  -11.4883    1.5784  -10.4950 H   0  0  0  0  0  0  0  0  0  0  0  0
  -12.0483    1.1628  -13.4758 H   0  0  0  0  0  0  0  0  0  0  0  0
  -11.0811    2.4804  -12.6890 H   0  0  0  0  0  0  0  0  0  0  0  0
   -5.8187    0.1953  -13.4052 H   0  0  0  0  0  0  0  0  0  0  0  0
   -6.9158    3.8520  -16.3133 H   0  0  0  0  0  0  0  0  0  0  0  0
  -11.3580    5.5038  -15.6039 H   0  0  0  0  0  0  0  0  0  0  0  0
  1  2  1  0
  2  3  1  0
  3  4  2  0
  4  5  1  0
  5  6  1  0
  6  7  2  0
  7  8  1  0
  8  9  1  0
  9 10  1  0
 10 11  1  0
 11 12  1  0
 12 13  1  0
 13 14  2  0
 14 15  1  0
 15 16  2  0
 16 17  1  0
 17 18  1  0
 17 19  1  1
 17 20  1  0
 20 21  1  0
 21 22  2  0
 22 23  1  0
 23 24  1  0
 23 25  2  0
 25 26  1  0
 16 27  1  0
 27 28  2  0
 12 29  1  0
 29 30  1  0
  8 31  2  0
 31 32  1  0
 32 33  2  0
 33 34  1  0
 34 35  1  0
  4 36  1  0
 36 37  2  0
 37  2  1  0
 35  5  2  0
 34  7  1  0
 30  9  1  0
 28 13  1  0
 26 20  2  0
  1 38  1  0
  1 39  1  0
  1 40  1  0
  3 41  1  0
  6 42  1  0
 10 43  1  0
 10 44  1  0
 11 45  1  0
 11 46  1  0
 15 47  1  0
 18 48  1  0
 18 49  1  0
 18 50  1  0
 19 51  1  0
 19 52  1  0
 21 53  1  0
 22 54  1  0
 25 55  1  0
 26 56  1  0
 27 57  1  0
 29 58  1  0
 29 59  1  0
 30 60  1  0
 30 61  1  0
 32 62  1  0
 35 63  1  0
 36 64  1  0
M  END
>  <meeko>  (10) 
{"is_sidechain": false}

>  <vina_affinity_kcal_mol>  (10) 
-8.837

>  <pose_rank>  (10) 
10

$$$$
