
     RDKit          3D

 73 77  0  0  0  0  0  0  0  0999 V2000
   26.0060    2.6710   10.5240 C   0  0  0  0  0  0  0  0  0  0  0  0
   25.0660    1.6200   10.7580 O   0  0  0  0  0  0  0  0  0  0  0  0
   25.6260    0.3890   10.8410 C   0  0  0  0  0  0  0  0  0  0  0  0
   26.7360    0.0780   10.4380 O   0  0  0  0  0  0  0  0  0  0  0  0
   24.6990   -0.5700   11.5000 C   0  0  0  0  0  0  0  0  0  0  0  0
   24.2130   -0.3700   12.8110 C   0  0  0  0  0  0  0  0  0  0  0  0
   23.3390   -1.2900   13.4090 C   0  0  0  0  0  0  0  0  0  0  0  0
   22.9610   -2.4160   12.6960 C   0  0  0  0  0  0  0  0  0  0  0  0
   23.4390   -2.5870   11.3900 C   0  0  0  0  0  0  0  0  0  0  0  0
   24.3010   -1.6980   10.7730 C   0  0  0  0  0  0  0  0  0  0  0  0
   22.9150   -3.7400   10.8180 N   0  0  0  0  0  0  0  0  0  0  0  0
   22.0620   -4.3880   11.6890 C   0  0  0  0  0  0  0  0  0  0  0  0
   21.4260   -5.4040   11.4710 O   0  0  0  0  0  0  0  0  0  0  0  0
   22.0790   -3.5700   12.9630 C   0  0  0  0  0  0  0  0  0  0  0  0
   21.3700   -3.9770   14.0460 C   0  0  0  0  0  0  0  0  0  0  0  0
   20.5390   -5.0950   14.0260 N   0  0  0  0  0  0  0  0  0  0  0  0
   19.1870   -5.3310   13.7250 C   0  0  0  0  0  0  0  0  0  0  0  0
   18.8570   -6.5630   13.1450 C   0  0  0  0  0  0  0  0  0  0  0  0
   17.5420   -6.8820   12.7660 C   0  0  0  0  0  0  0  0  0  0  0  0
   16.4880   -5.9840   12.9530 C   0  0  0  0  0  0  0  0  0  0  0  0
   15.1340   -6.2840   12.5420 N   0  0  0  0  0  0  0  0  0  0  0  0
   14.2640   -5.1550   12.2060 C   0  0  0  0  0  0  0  0  0  0  0  0
   14.6180   -7.5990   12.5630 C   0  0  0  0  0  0  0  0  0  0  0  0
   14.4900   -8.3010   11.5570 O   0  0  0  0  0  0  0  0  0  0  0  0
   14.2060   -8.1290   13.9580 C   0  0  0  0  0  0  0  0  0  0  0  0
   15.2720   -7.9600   14.9650 N   0  0  0  0  0  0  0  0  0  0  0  0
   14.7180   -7.5580   16.2720 C   0  0  0  0  0  0  0  0  0  0  0  0
   15.6360   -7.8670   17.4850 C   0  0  0  0  0  0  0  0  0  0  0  0
   17.0770   -7.9510   17.1930 N   0  0  0  0  0  0  0  0  0  0  0  0
   17.6120   -6.6320   16.8440 C   0  0  0  0  0  0  0  0  0  0  0  0
   17.3060   -8.9140   16.0920 C   0  0  0  0  0  0  0  0  0  0  0  0
   16.1210   -9.1490   15.1140 C   0  0  0  0  0  0  0  0  0  0  0  0
   16.8260   -4.7410   13.5120 C   0  0  0  0  0  0  0  0  0  0  0  0
   18.1450   -4.4250   13.8890 C   0  0  0  0  0  0  0  0  0  0  0  0
   21.4250   -3.1510   15.2680 C   0  0  0  0  0  0  0  0  0  0  0  0
   21.4220   -3.7540   16.5360 C   0  0  0  0  0  0  0  0  0  0  0  0
   21.4880   -2.9710   17.6900 C   0  0  0  0  0  0  0  0  0  0  0  0
   21.5570   -1.5820   17.5850 C   0  0  0  0  0  0  0  0  0  0  0  0
   21.5570   -0.9730   16.3290 C   0  0  0  0  0  0  0  0  0  0  0  0
   21.4910   -1.7540   15.1730 C   0  0  0  0  0  0  0  0  0  0  0  0
   26.3603    3.0672   11.4871 H   0  0  0  0  0  0  0  0  0  0  0  0
   26.8600    2.2786    9.9524 H   0  0  0  0  0  0  0  0  0  0  0  0
   25.5211    3.4761    9.9524 H   0  0  0  0  0  0  0  0  0  0  0  0
   24.5253    0.5227   13.3728 H   0  0  0  0  0  0  0  0  0  0  0  0
   22.9600   -1.1201   14.4276 H   0  0  0  0  0  0  0  0  0  0  0  0
   24.6607   -1.8714    9.7480 H   0  0  0  0  0  0  0  0  0  0  0  0
   23.0910   -4.0700    9.8810 H   0  0  0  0  0  0  0  0  0  0  0  0
   21.0060   -5.9380   14.3770 H   0  0  0  0  0  0  0  0  0  0  0  0
   19.6529   -7.3044   12.9811 H   0  0  0  0  0  0  0  0  0  0  0  0
   17.3374   -7.8624   12.3111 H   0  0  0  0  0  0  0  0  0  0  0  0
   13.9009   -4.6838   13.1313 H   0  0  0  0  0  0  0  0  0  0  0  0
   14.8302   -4.4183   11.6172 H   0  0  0  0  0  0  0  0  0  0  0  0
   13.4074   -5.5148   11.6172 H   0  0  0  0  0  0  0  0  0  0  0  0
   13.3134   -7.5809   14.2940 H   0  0  0  0  0  0  0  0  0  0  0  0
   14.0065   -9.2064   13.8604 H   0  0  0  0  0  0  0  0  0  0  0  0
   14.5343   -6.4737   16.2480 H   0  0  0  0  0  0  0  0  0  0  0  0
   13.8007   -8.1476   16.4167 H   0  0  0  0  0  0  0  0  0  0  0  0
   15.4885   -7.0722   18.2310 H   0  0  0  0  0  0  0  0  0  0  0  0
   15.3430   -8.8681   17.8341 H   0  0  0  0  0  0  0  0  0  0  0  0
   17.8387   -6.0731   17.7639 H   0  0  0  0  0  0  0  0  0  0  0  0
   18.5317   -6.7540   16.2531 H   0  0  0  0  0  0  0  0  0  0  0  0
   16.8672   -6.0788   16.2531 H   0  0  0  0  0  0  0  0  0  0  0  0
   18.1587   -8.5484   15.5011 H   0  0  0  0  0  0  0  0  0  0  0  0
   17.4714   -9.8834   16.5848 H   0  0  0  0  0  0  0  0  0  0  0  0
   16.5257   -9.4196   14.1276 H   0  0  0  0  0  0  0  0  0  0  0  0
   15.4984   -9.9549   15.5300 H   0  0  0  0  0  0  0  0  0  0  0  0
   16.0353   -3.9907   13.6600 H   0  0  0  0  0  0  0  0  0  0  0  0
   18.3566   -3.4371   14.3240 H   0  0  0  0  0  0  0  0  0  0  0  0
   21.3673   -4.8494   16.6206 H   0  0  0  0  0  0  0  0  0  0  0  0
   21.4856   -3.4490   18.6807 H   0  0  0  0  0  0  0  0  0  0  0  0
   21.6115   -0.9650   18.4940 H   0  0  0  0  0  0  0  0  0  0  0  0
   21.6090    0.1229   16.2496 H   0  0  0  0  0  0  0  0  0  0  0  0
   21.4908   -1.2712   14.1846 H   0  0  0  0  0  0  0  0  0  0  0  0
  1  2  1  0
  2  3  1  0
  3  4  2  0
  3  5  1  0
  5  6  1  0
  6  7  2  0
  7  8  1  0
  8  9  2  0
  9 10  1  0
  9 11  1  0
 11 12  1  0
 12 13  2  0
 12 14  1  0
 14 15  2  0
 15 16  1  0
 16 17  1  0
 17 18  1  0
 18 19  2  0
 19 20  1  0
 20 21  1  0
 21 22  1  0
 21 23  1  0
 23 24  2  0
 23 25  1  0
 25 26  1  0
 26 27  1  0
 27 28  1  0
 28 29  1  0
 29 30  1  0
 29 31  1  0
 31 32  1  0
 20 33  2  0
 33 34  1  0
 15 35  1  0
 35 36  2  0
 36 37  1  0
 37 38  2  0
 38 39  1  0
 39 40  2  0
 10  5  2  0
 34 17  2  0
 40 35  1  0
 14  8  1  0
 32 26  1  0
  1 41  1  0
  1 42  1  0
  1 43  1  0
  6 44  1  0
  7 45  1  0
 10 46  1  0
 11 47  1  0
 16 48  1  0
 18 49  1  0
 19 50  1  0
 22 51  1  0
 22 52  1  0
 22 53  1  0
 25 54  1  0
 25 55  1  0
 27 56  1  0
 27 57  1  0
 28 58  1  0
 28 59  1  0
 30 60  1  0
 30 61  1  0
 30 62  1  0
 31 63  1  0
 31 64  1  0
 32 65  1  0
 32 66  1  0
 33 67  1  0
 34 68  1  0
 36 69  1  0
 37 70  1  0
 38 71  1  0
 39 72  1  0
 40 73  1  0
M  END
>  <meeko>  (1) 
{"is_sidechain": false}

>  <vina_affinity_kcal_mol>  (1) 
-6.884

>  <pose_rank>  (1) 
1

$$$$

     RDKit          3D

 73 77  0  0  0  0  0  0  0  0999 V2000
   26.5950    0.2920   12.7240 C   0  0  0  0  0  0  0  0  0  0  0  0
   25.5190    0.3210   11.7850 O   0  0  0  0  0  0  0  0  0  0  0  0
   24.3680    0.8360   12.2820 C   0  0  0  0  0  0  0  0  0  0  0  0
   23.9500    1.9680   12.0940 O   0  0  0  0  0  0  0  0  0  0  0  0
   23.6520   -0.1730   13.1080 C   0  0  0  0  0  0  0  0  0  0  0  0
   23.3110    0.0620   14.4580 C   0  0  0  0  0  0  0  0  0  0  0  0
   22.6340   -0.9070   15.2140 C   0  0  0  0  0  0  0  0  0  0  0  0
   22.3080   -2.1150   14.6190 C   0  0  0  0  0  0  0  0  0  0  0  0
   22.6390   -2.3210   13.2730 C   0  0  0  0  0  0  0  0  0  0  0  0
   23.3050   -1.3870   12.5020 C   0  0  0  0  0  0  0  0  0  0  0  0
   22.1910   -3.5620   12.8380 N   0  0  0  0  0  0  0  0  0  0  0  0
   21.5350   -4.2400   13.8460 C   0  0  0  0  0  0  0  0  0  0  0  0
   21.0030   -5.3330   13.7690 O   0  0  0  0  0  0  0  0  0  0  0  0
   21.6120   -3.3400   15.0610 C   0  0  0  0  0  0  0  0  0  0  0  0
   21.0960   -3.7470   16.2480 C   0  0  0  0  0  0  0  0  0  0  0  0
   20.4080   -4.9500   16.3980 N   0  0  0  0  0  0  0  0  0  0  0  0
   19.1150   -5.4070   16.0960 C   0  0  0  0  0  0  0  0  0  0  0  0
   18.6540   -6.5440   16.7720 C   0  0  0  0  0  0  0  0  0  0  0  0
   17.3940   -7.1080   16.5130 C   0  0  0  0  0  0  0  0  0  0  0  0
   16.5270   -6.5600   15.5640 C   0  0  0  0  0  0  0  0  0  0  0  0
   15.2390   -7.1450   15.2630 N   0  0  0  0  0  0  0  0  0  0  0  0
   14.4010   -7.5510   16.3920 C   0  0  0  0  0  0  0  0  0  0  0  0
   14.8330   -7.4240   13.9380 C   0  0  0  0  0  0  0  0  0  0  0  0
   14.1970   -6.6350   13.2360 O   0  0  0  0  0  0  0  0  0  0  0  0
   15.2400   -8.8170   13.3980 C   0  0  0  0  0  0  0  0  0  0  0  0
   16.5480   -8.8000   12.7140 N   0  0  0  0  0  0  0  0  0  0  0  0
   16.7740   -7.5190   12.0190 C   0  0  0  0  0  0  0  0  0  0  0  0
   18.2650   -7.1910   11.7390 C   0  0  0  0  0  0  0  0  0  0  0  0
   19.1690   -8.3500   11.6440 N   0  0  0  0  0  0  0  0  0  0  0  0
   18.8870   -9.1290   10.4370 C   0  0  0  0  0  0  0  0  0  0  0  0
   19.0260   -9.1920   12.8540 C   0  0  0  0  0  0  0  0  0  0  0  0
   17.6720   -9.1000   13.6110 C   0  0  0  0  0  0  0  0  0  0  0  0
   17.0020   -5.4360   14.8700 C   0  0  0  0  0  0  0  0  0  0  0  0
   18.2660   -4.8740   15.1320 C   0  0  0  0  0  0  0  0  0  0  0  0
   21.2010   -2.8380   17.4060 C   0  0  0  0  0  0  0  0  0  0  0  0
   20.1610   -1.9450   17.7080 C   0  0  0  0  0  0  0  0  0  0  0  0
   20.2580   -1.0960   18.8120 C   0  0  0  0  0  0  0  0  0  0  0  0
   21.3950   -1.1320   19.6200 C   0  0  0  0  0  0  0  0  0  0  0  0
   22.4350   -2.0140   19.3260 C   0  0  0  0  0  0  0  0  0  0  0  0
   22.3410   -2.8650   18.2220 C   0  0  0  0  0  0  0  0  0  0  0  0
   26.1897    0.3029   13.7465 H   0  0  0  0  0  0  0  0  0  0  0  0
   27.1878   -0.6224   12.5743 H   0  0  0  0  0  0  0  0  0  0  0  0
   27.2362    1.1732   12.5743 H   0  0  0  0  0  0  0  0  0  0  0  0
   23.5806    1.0208   14.9248 H   0  0  0  0  0  0  0  0  0  0  0  0
   22.3663   -0.7106   16.2627 H   0  0  0  0  0  0  0  0  0  0  0  0
   23.5537   -1.5900   11.4499 H   0  0  0  0  0  0  0  0  0  0  0  0
   22.2880   -3.9340   11.9050 H   0  0  0  0  0  0  0  0  0  0  0  0
   20.9530   -5.6520   16.9100 H   0  0  0  0  0  0  0  0  0  0  0  0
   19.2999   -7.0104   17.5305 H   0  0  0  0  0  0  0  0  0  0  0  0
   17.0820   -8.0032   17.0710 H   0  0  0  0  0  0  0  0  0  0  0  0
   14.9111   -7.3039   17.3347 H   0  0  0  0  0  0  0  0  0  0  0  0
   13.4394   -7.0189   16.3449 H   0  0  0  0  0  0  0  0  0  0  0  0
   14.2226   -8.6354   16.3449 H   0  0  0  0  0  0  0  0  0  0  0  0
   15.2928   -9.5205   14.2420 H   0  0  0  0  0  0  0  0  0  0  0  0
   14.4826   -9.1235   12.6615 H   0  0  0  0  0  0  0  0  0  0  0  0
   16.2432   -7.5526   11.0561 H   0  0  0  0  0  0  0  0  0  0  0  0
   16.4015   -6.7303   12.6892 H   0  0  0  0  0  0  0  0  0  0  0  0
   18.3170   -6.6433   10.7865 H   0  0  0  0  0  0  0  0  0  0  0  0
   18.6118   -6.6117   12.6074 H   0  0  0  0  0  0  0  0  0  0  0  0
   18.5253  -10.1281   10.7216 H   0  0  0  0  0  0  0  0  0  0  0  0
   18.1174   -8.6164    9.8412 H   0  0  0  0  0  0  0  0  0  0  0  0
   19.8064   -9.2278    9.8412 H   0  0  0  0  0  0  0  0  0  0  0  0
   19.1676  -10.2396   12.5499 H   0  0  0  0  0  0  0  0  0  0  0  0
   19.7791   -8.8135   13.5608 H   0  0  0  0  0  0  0  0  0  0  0  0
   17.4796  -10.0618   14.1089 H   0  0  0  0  0  0  0  0  0  0  0  0
   17.7494   -8.2781   14.3380 H   0  0  0  0  0  0  0  0  0  0  0  0
   16.3664   -4.9798   14.0968 H   0  0  0  0  0  0  0  0  0  0  0  0
   18.5900   -3.9918   14.5603 H   0  0  0  0  0  0  0  0  0  0  0  0
   19.2646   -1.9140   17.0713 H   0  0  0  0  0  0  0  0  0  0  0  0
   19.4390   -0.3995   19.0446 H   0  0  0  0  0  0  0  0  0  0  0  0
   21.4714   -0.4637   20.4904 H   0  0  0  0  0  0  0  0  0  0  0  0
   23.3305   -2.0395   19.9644 H   0  0  0  0  0  0  0  0  0  0  0  0
   23.1636   -3.5582   17.9922 H   0  0  0  0  0  0  0  0  0  0  0  0
  1  2  1  0
  2  3  1  0
  3  4  2  0
  3  5  1  0
  5  6  1  0
  6  7  2  0
  7  8  1  0
  8  9  2  0
  9 10  1  0
  9 11  1  0
 11 12  1  0
 12 13  2  0
 12 14  1  0
 14 15  2  0
 15 16  1  0
 16 17  1  0
 17 18  1  0
 18 19  2  0
 19 20  1  0
 20 21  1  0
 21 22  1  0
 21 23  1  0
 23 24  2  0
 23 25  1  0
 25 26  1  0
 26 27  1  0
 27 28  1  0
 28 29  1  0
 29 30  1  0
 29 31  1  0
 31 32  1  0
 20 33  2  0
 33 34  1  0
 15 35  1  0
 35 36  2  0
 36 37  1  0
 37 38  2  0
 38 39  1  0
 39 40  2  0
 10  5  2  0
 34 17  2  0
 40 35  1  0
 14  8  1  0
 32 26  1  0
  1 41  1  0
  1 42  1  0
  1 43  1  0
  6 44  1  0
  7 45  1  0
 10 46  1  0
 11 47  1  0
 16 48  1  0
 18 49  1  0
 19 50  1  0
 22 51  1  0
 22 52  1  0
 22 53  1  0
 25 54  1  0
 25 55  1  0
 27 56  1  0
 27 57  1  0
 28 58  1  0
 28 59  1  0
 30 60  1  0
 30 61  1  0
 30 62  1  0
 31 63  1  0
 31 64  1  0
 32 65  1  0
 32 66  1  0
 33 67  1  0
 34 68  1  0
 36 69  1  0
 37 70  1  0
 38 71  1  0
 39 72  1  0
 40 73  1  0
M  END
>  <meeko>  (2) 
{"is_sidechain": false}

>  <vina_affinity_kcal_mol>  (2) 
-5.138

>  <pose_rank>  (2) 
2

$$$$

     RDKit          3D

 73 77  0  0  0  0  0  0  0  0999 V2000
   25.1180   -0.3440   22.3710 C   0  0  0  0  0  0  0  0  0  0  0  0
   24.0900   -1.3360   22.3400 O   0  0  0  0  0  0  0  0  0  0  0  0
   22.8690   -0.8530   22.0020 C   0  0  0  0  0  0  0  0  0  0  0  0
   22.2340   -0.0150   22.6220 O   0  0  0  0  0  0  0  0  0  0  0  0
   22.3800   -1.4860   20.7480 C   0  0  0  0  0  0  0  0  0  0  0  0
   22.8750   -1.1230   19.4760 C   0  0  0  0  0  0  0  0  0  0  0  0
   22.3950   -1.7370   18.3090 C   0  0  0  0  0  0  0  0  0  0  0  0
   21.4130   -2.7070   18.4180 C   0  0  0  0  0  0  0  0  0  0  0  0
   20.9470   -3.0660   19.6900 C   0  0  0  0  0  0  0  0  0  0  0  0
   21.4000   -2.4800   20.8580 C   0  0  0  0  0  0  0  0  0  0  0  0
   20.0050   -4.0840   19.6030 N   0  0  0  0  0  0  0  0  0  0  0  0
   19.7990   -4.4660   18.2930 C   0  0  0  0  0  0  0  0  0  0  0  0
   19.0620   -5.3510   17.8950 O   0  0  0  0  0  0  0  0  0  0  0  0
   20.6840   -3.5630   17.4590 C   0  0  0  0  0  0  0  0  0  0  0  0
   20.6730   -3.6550   16.1060 C   0  0  0  0  0  0  0  0  0  0  0  0
   19.9310   -4.6150   15.4220 N   0  0  0  0  0  0  0  0  0  0  0  0
   18.6940   -4.6370   14.7550 C   0  0  0  0  0  0  0  0  0  0  0  0
   18.7050   -4.4890   13.3620 C   0  0  0  0  0  0  0  0  0  0  0  0
   17.5220   -4.4530   12.6060 C   0  0  0  0  0  0  0  0  0  0  0  0
   16.2650   -4.5670   13.2060 C   0  0  0  0  0  0  0  0  0  0  0  0
   15.0360   -4.5020   12.4460 N   0  0  0  0  0  0  0  0  0  0  0  0
   14.1970   -3.3140   12.6170 C   0  0  0  0  0  0  0  0  0  0  0  0
   14.5890   -5.5800   11.6480 C   0  0  0  0  0  0  0  0  0  0  0  0
   14.2660   -5.4680   10.4640 O   0  0  0  0  0  0  0  0  0  0  0  0
   14.5230   -6.9520   12.3620 C   0  0  0  0  0  0  0  0  0  0  0  0
   15.8540   -7.5710   12.5250 N   0  0  0  0  0  0  0  0  0  0  0  0
   16.0440   -8.0840   13.8940 C   0  0  0  0  0  0  0  0  0  0  0  0
   17.1310   -9.1850   14.0260 C   0  0  0  0  0  0  0  0  0  0  0  0
   18.1860   -9.1700   12.9990 N   0  0  0  0  0  0  0  0  0  0  0  0
   19.0450   -7.9940   13.1570 C   0  0  0  0  0  0  0  0  0  0  0  0
   17.5690   -9.1860   11.6520 C   0  0  0  0  0  0  0  0  0  0  0  0
   16.1230   -8.6270   11.5410 C   0  0  0  0  0  0  0  0  0  0  0  0
   16.2570   -4.6900   14.6040 C   0  0  0  0  0  0  0  0  0  0  0  0
   17.4450   -4.7250   15.3580 C   0  0  0  0  0  0  0  0  0  0  0  0
   21.5460   -2.7470   15.3360 C   0  0  0  0  0  0  0  0  0  0  0  0
   21.6000   -1.3780   15.6450 C   0  0  0  0  0  0  0  0  0  0  0  0
   22.4380   -0.5250   14.9240 C   0  0  0  0  0  0  0  0  0  0  0  0
   23.2250   -1.0330   13.8900 C   0  0  0  0  0  0  0  0  0  0  0  0
   23.1760   -2.3910   13.5740 C   0  0  0  0  0  0  0  0  0  0  0  0
   22.3390   -3.2470   14.2930 C   0  0  0  0  0  0  0  0  0  0  0  0
   25.3656   -0.1051   23.4158 H   0  0  0  0  0  0  0  0  0  0  0  0
   26.0136   -0.7279   21.8605 H   0  0  0  0  0  0  0  0  0  0  0  0
   24.7662    0.5647   21.8605 H   0  0  0  0  0  0  0  0  0  0  0  0
   23.6498   -0.3460   19.3988 H   0  0  0  0  0  0  0  0  0  0  0  0
   22.7925   -1.4523   17.3236 H   0  0  0  0  0  0  0  0  0  0  0  0
   21.0045   -2.7840   21.8384 H   0  0  0  0  0  0  0  0  0  0  0  0
   19.5400   -4.5280   20.3800 H   0  0  0  0  0  0  0  0  0  0  0  0
   20.3550   -5.5480   15.4710 H   0  0  0  0  0  0  0  0  0  0  0  0
   19.6710   -4.3981   12.8438 H   0  0  0  0  0  0  0  0  0  0  0  0
   17.5864   -4.3321   11.5146 H   0  0  0  0  0  0  0  0  0  0  0  0
   14.0568   -3.1155   13.6898 H   0  0  0  0  0  0  0  0  0  0  0  0
   14.6856   -2.4490   12.1448 H   0  0  0  0  0  0  0  0  0  0  0  0
   13.2184   -3.4852   12.1448 H   0  0  0  0  0  0  0  0  0  0  0  0
   14.0759   -6.8104   13.3570 H   0  0  0  0  0  0  0  0  0  0  0  0
   13.9167   -7.6243   11.7372 H   0  0  0  0  0  0  0  0  0  0  0  0
   16.3294   -7.2407   14.5400 H   0  0  0  0  0  0  0  0  0  0  0  0
   15.0915   -8.5491   14.1879 H   0  0  0  0  0  0  0  0  0  0  0  0
   17.6136   -9.0669   15.0074 H   0  0  0  0  0  0  0  0  0  0  0  0
   16.6039  -10.1421   13.8990 H   0  0  0  0  0  0  0  0  0  0  0  0
   19.1940   -7.7900   14.2276 H   0  0  0  0  0  0  0  0  0  0  0  0
   20.0183   -8.1842   12.6810 H   0  0  0  0  0  0  0  0  0  0  0  0
   18.5677   -7.1247   12.6810 H   0  0  0  0  0  0  0  0  0  0  0  0
   18.2091   -8.5900   10.9849 H   0  0  0  0  0  0  0  0  0  0  0  0
   17.4898  -10.2495   11.3825 H   0  0  0  0  0  0  0  0  0  0  0  0
   15.9805   -8.2138   10.5316 H   0  0  0  0  0  0  0  0  0  0  0  0
   15.4271   -9.4554   11.7394 H   0  0  0  0  0  0  0  0  0  0  0  0
   15.2919   -4.7613   15.1270 H   0  0  0  0  0  0  0  0  0  0  0  0
   17.3833   -4.8245   16.4518 H   0  0  0  0  0  0  0  0  0  0  0  0
   20.9791   -0.9758   16.4590 H   0  0  0  0  0  0  0  0  0  0  0  0
   22.4776    0.5462   15.1709 H   0  0  0  0  0  0  0  0  0  0  0  0
   23.8857   -0.3611   13.3225 H   0  0  0  0  0  0  0  0  0  0  0  0
   23.7973   -2.7879   12.7576 H   0  0  0  0  0  0  0  0  0  0  0  0
   22.3016   -4.3170   14.0404 H   0  0  0  0  0  0  0  0  0  0  0  0
  1  2  1  0
  2  3  1  0
  3  4  2  0
  3  5  1  0
  5  6  1  0
  6  7  2  0
  7  8  1  0
  8  9  2  0
  9 10  1  0
  9 11  1  0
 11 12  1  0
 12 13  2  0
 12 14  1  0
 14 15  2  0
 15 16  1  0
 16 17  1  0
 17 18  1  0
 18 19  2  0
 19 20  1  0
 20 21  1  0
 21 22  1  0
 21 23  1  0
 23 24  2  0
 23 25  1  0
 25 26  1  0
 26 27  1  0
 27 28  1  0
 28 29  1  0
 29 30  1  0
 29 31  1  0
 31 32  1  0
 20 33  2  0
 33 34  1  0
 15 35  1  0
 35 36  2  0
 36 37  1  0
 37 38  2  0
 38 39  1  0
 39 40  2  0
 10  5  2  0
 34 17  2  0
 40 35  1  0
 14  8  1  0
 32 26  1  0
  1 41  1  0
  1 42  1  0
  1 43  1  0
  6 44  1  0
  7 45  1  0
 10 46  1  0
 11 47  1  0
 16 48  1  0
 18 49  1  0
 19 50  1  0
 22 51  1  0
 22 52  1  0
 22 53  1  0
 25 54  1  0
 25 55  1  0
 27 56  1  0
 27 57  1  0
 28 58  1  0
 28 59  1  0
 30 60  1  0
 30 61  1  0
 30 62  1  0
 31 63  1  0
 31 64  1  0
 32 65  1  0
 32 66  1  0
 33 67  1  0
 34 68  1  0
 36 69  1  0
 37 70  1  0
 38 71  1  0
 39 72  1  0
 40 73  1  0
M  END
>  <meeko>  (3) 
{"is_sidechain": false}

>  <vina_affinity_kcal_mol>  (3) 
-4.407

>  <pose_rank>  (3) 
3

$$$$

     RDKit          3D

 73 77  0  0  0  0  0  0  0  0999 V2000
   17.5660   -6.7990   10.5960 C   0  0  0  0  0  0  0  0  0  0  0  0
   17.1640   -5.4280   10.6300 O   0  0  0  0  0  0  0  0  0  0  0  0
   16.4150   -5.1000   11.7100 C   0  0  0  0  0  0  0  0  0  0  0  0
   15.1950   -5.0530   11.7480 O   0  0  0  0  0  0  0  0  0  0  0  0
   17.2800   -4.7950   12.8810 C   0  0  0  0  0  0  0  0  0  0  0  0
   18.3530   -3.8800   12.8090 C   0  0  0  0  0  0  0  0  0  0  0  0
   19.1540   -3.6110   13.9300 C   0  0  0  0  0  0  0  0  0  0  0  0
   18.8830   -4.2660   15.1190 C   0  0  0  0  0  0  0  0  0  0  0  0
   17.8030   -5.1570   15.1760 C   0  0  0  0  0  0  0  0  0  0  0  0
   16.9960   -5.4430   14.0900 C   0  0  0  0  0  0  0  0  0  0  0  0
   17.6570   -5.6770   16.4550 N   0  0  0  0  0  0  0  0  0  0  0  0
   18.6060   -5.1640   17.3170 C   0  0  0  0  0  0  0  0  0  0  0  0
   18.7200   -5.4000   18.5060 O   0  0  0  0  0  0  0  0  0  0  0  0
   19.4680   -4.2470   16.4750 C   0  0  0  0  0  0  0  0  0  0  0  0
   20.5370   -3.6180   17.0250 C   0  0  0  0  0  0  0  0  0  0  0  0
   20.8500   -3.7090   18.3800 N   0  0  0  0  0  0  0  0  0  0  0  0
   21.5820   -2.9320   19.2930 C   0  0  0  0  0  0  0  0  0  0  0  0
   20.9370   -2.5320   20.4690 C   0  0  0  0  0  0  0  0  0  0  0  0
   21.5650   -1.7170   21.4260 C   0  0  0  0  0  0  0  0  0  0  0  0
   22.8760   -1.2640   21.2550 C   0  0  0  0  0  0  0  0  0  0  0  0
   23.5270   -0.4000   22.2150 N   0  0  0  0  0  0  0  0  0  0  0  0
   22.6990    0.1800   23.2740 C   0  0  0  0  0  0  0  0  0  0  0  0
   24.8860   -0.0300   22.0910 C   0  0  0  0  0  0  0  0  0  0  0  0
   25.8260   -0.7500   22.4320 O   0  0  0  0  0  0  0  0  0  0  0  0
   25.1390    1.3730   21.4850 C   0  0  0  0  0  0  0  0  0  0  0  0
   25.8240    2.2800   22.4250 N   0  0  0  0  0  0  0  0  0  0  0  0
   26.2930    1.5590   23.6230 C   0  0  0  0  0  0  0  0  0  0  0  0
   27.4470    2.2610   24.3890 C   0  0  0  0  0  0  0  0  0  0  0  0
   27.5320    3.7220   24.2220 N   0  0  0  0  0  0  0  0  0  0  0  0
   26.4020    4.3840   24.8770 C   0  0  0  0  0  0  0  0  0  0  0  0
   27.5670    4.0560   22.7790 C   0  0  0  0  0  0  0  0  0  0  0  0
   26.9330    3.0210   21.8090 C   0  0  0  0  0  0  0  0  0  0  0  0
   23.5110   -1.6460   20.0630 C   0  0  0  0  0  0  0  0  0  0  0  0
   22.8770   -2.4610   19.1070 C   0  0  0  0  0  0  0  0  0  0  0  0
   21.3520   -2.7400   16.1630 C   0  0  0  0  0  0  0  0  0  0  0  0
   22.1570   -3.2850   15.1500 C   0  0  0  0  0  0  0  0  0  0  0  0
   22.9160   -2.4500   14.3270 C   0  0  0  0  0  0  0  0  0  0  0  0
   22.8770   -1.0680   14.5110 C   0  0  0  0  0  0  0  0  0  0  0  0
   22.0820   -0.5180   15.5180 C   0  0  0  0  0  0  0  0  0  0  0  0
   21.3220   -1.3500   16.3430 C   0  0  0  0  0  0  0  0  0  0  0  0
   17.6761   -7.1744   11.6241 H   0  0  0  0  0  0  0  0  0  0  0  0
   16.8038   -7.3916   10.0689 H   0  0  0  0  0  0  0  0  0  0  0  0
   18.5275   -6.8862   10.0689 H   0  0  0  0  0  0  0  0  0  0  0  0
   18.5649   -3.3692   11.8581 H   0  0  0  0  0  0  0  0  0  0  0  0
   19.9835   -2.8915   13.8646 H   0  0  0  0  0  0  0  0  0  0  0  0
   16.1608   -6.1541   14.1726 H   0  0  0  0  0  0  0  0  0  0  0  0
   16.9410   -6.3220   16.7550 H   0  0  0  0  0  0  0  0  0  0  0  0
   20.5230   -4.5860   18.8010 H   0  0  0  0  0  0  0  0  0  0  0  0
   19.9048   -2.8665   20.6500 H   0  0  0  0  0  0  0  0  0  0  0  0
   21.0113   -1.4286   22.3317 H   0  0  0  0  0  0  0  0  0  0  0  0
   23.1060   -0.1051   24.2553 H   0  0  0  0  0  0  0  0  0  0  0  0
   22.6997    1.2761   23.1812 H   0  0  0  0  0  0  0  0  0  0  0  0
   21.6691   -0.1952   23.1812 H   0  0  0  0  0  0  0  0  0  0  0  0
   25.7621    1.2614   20.5854 H   0  0  0  0  0  0  0  0  0  0  0  0
   24.1604    1.8155   21.2473 H   0  0  0  0  0  0  0  0  0  0  0  0
   25.4423    1.4473   24.3113 H   0  0  0  0  0  0  0  0  0  0  0  0
   26.6924    0.5963   23.2713 H   0  0  0  0  0  0  0  0  0  0  0  0
   27.3174    2.0509   25.4609 H   0  0  0  0  0  0  0  0  0  0  0  0
   28.3773    1.8571   23.9630 H   0  0  0  0  0  0  0  0  0  0  0  0
   26.5193    4.3153   25.9686 H   0  0  0  0  0  0  0  0  0  0  0  0
   26.3729    5.4420   24.5772 H   0  0  0  0  0  0  0  0  0  0  0  0
   25.4649    3.8921   24.5772 H   0  0  0  0  0  0  0  0  0  0  0  0
   27.0347    5.0091   22.6442 H   0  0  0  0  0  0  0  0  0  0  0  0
   28.6343    4.0852   22.5142 H   0  0  0  0  0  0  0  0  0  0  0  0
   26.5536    3.5529   20.9240 H   0  0  0  0  0  0  0  0  0  0  0  0
   27.7128    2.2935   21.5395 H   0  0  0  0  0  0  0  0  0  0  0  0
   24.5363   -1.2974   19.8701 H   0  0  0  0  0  0  0  0  0  0  0  0
   23.4195   -2.7323   18.1894 H   0  0  0  0  0  0  0  0  0  0  0  0
   22.1901   -4.3747   15.0038 H   0  0  0  0  0  0  0  0  0  0  0  0
   23.5442   -2.8821   13.5341 H   0  0  0  0  0  0  0  0  0  0  0  0
   23.4736   -0.4105   13.8616 H   0  0  0  0  0  0  0  0  0  0  0  0
   22.0541    0.5722   15.6619 H   0  0  0  0  0  0  0  0  0  0  0  0
   20.6979   -0.9133   17.1366 H   0  0  0  0  0  0  0  0  0  0  0  0
  1  2  1  0
  2  3  1  0
  3  4  2  0
  3  5  1  0
  5  6  1  0
  6  7  2  0
  7  8  1  0
  8  9  2  0
  9 10  1  0
  9 11  1  0
 11 12  1  0
 12 13  2  0
 12 14  1  0
 14 15  2  0
 15 16  1  0
 16 17  1  0
 17 18  1  0
 18 19  2  0
 19 20  1  0
 20 21  1  0
 21 22  1  0
 21 23  1  0
 23 24  2  0
 23 25  1  0
 25 26  1  0
 26 27  1  0
 27 28  1  0
 28 29  1  0
 29 30  1  0
 29 31  1  0
 31 32  1  0
 20 33  2  0
 33 34  1  0
 15 35  1  0
 35 36  2  0
 36 37  1  0
 37 38  2  0
 38 39  1  0
 39 40  2  0
 10  5  2  0
 34 17  2  0
 40 35  1  0
 14  8  1  0
 32 26  1  0
  1 41  1  0
  1 42  1  0
  1 43  1  0
  6 44  1  0
  7 45  1  0
 10 46  1  0
 11 47  1  0
 16 48  1  0
 18 49  1  0
 19 50  1  0
 22 51  1  0
 22 52  1  0
 22 53  1  0
 25 54  1  0
 25 55  1  0
 27 56  1  0
 27 57  1  0
 28 58  1  0
 28 59  1  0
 30 60  1  0
 30 61  1  0
 30 62  1  0
 31 63  1  0
 31 64  1  0
 32 65  1  0
 32 66  1  0
 33 67  1  0
 34 68  1  0
 36 69  1  0
 37 70  1  0
 38 71  1  0
 39 72  1  0
 40 73  1  0
M  END
>  <meeko>  (4) 
{"is_sidechain": false}

>  <vina_affinity_kcal_mol>  (4) 
-3.58

>  <pose_rank>  (4) 
4

$$$$

     RDKit          3D

 73 77  0  0  0  0  0  0  0  0999 V2000
   14.2570   -4.0330   12.6560 C   0  0  0  0  0  0  0  0  0  0  0  0
   14.9280   -5.2630   12.3790 O   0  0  0  0  0  0  0  0  0  0  0  0
   16.2050   -5.1100   11.9500 C   0  0  0  0  0  0  0  0  0  0  0  0
   16.5860   -5.1940   10.7930 O   0  0  0  0  0  0  0  0  0  0  0  0
   17.1140   -4.8170   13.0900 C   0  0  0  0  0  0  0  0  0  0  0  0
   18.1700   -3.8850   12.9930 C   0  0  0  0  0  0  0  0  0  0  0  0
   19.0130   -3.6270   14.0850 C   0  0  0  0  0  0  0  0  0  0  0  0
   18.8020   -4.3130   15.2700 C   0  0  0  0  0  0  0  0  0  0  0  0
   17.7380   -5.2210   15.3520 C   0  0  0  0  0  0  0  0  0  0  0  0
   16.8910   -5.4960   14.2940 C   0  0  0  0  0  0  0  0  0  0  0  0
   17.6540   -5.7710   16.6250 N   0  0  0  0  0  0  0  0  0  0  0  0
   18.6310   -5.2620   17.4570 C   0  0  0  0  0  0  0  0  0  0  0  0
   18.7980   -5.5220   18.6350 O   0  0  0  0  0  0  0  0  0  0  0  0
   19.4430   -4.3140   16.6010 C   0  0  0  0  0  0  0  0  0  0  0  0
   20.5260   -3.6800   17.1190 C   0  0  0  0  0  0  0  0  0  0  0  0
   20.8960   -3.7960   18.4580 N   0  0  0  0  0  0  0  0  0  0  0  0
   21.6300   -3.0130   19.3640 C   0  0  0  0  0  0  0  0  0  0  0  0
   20.9350   -2.4380   20.4360 C   0  0  0  0  0  0  0  0  0  0  0  0
   21.5660   -1.6030   21.3730 C   0  0  0  0  0  0  0  0  0  0  0  0
   22.9280   -1.3040   21.2870 C   0  0  0  0  0  0  0  0  0  0  0  0
   23.5870   -0.4220   22.2260 N   0  0  0  0  0  0  0  0  0  0  0  0
   22.7650    0.1860   23.2740 C   0  0  0  0  0  0  0  0  0  0  0  0
   24.9470   -0.0620   22.0890 C   0  0  0  0  0  0  0  0  0  0  0  0
   25.8850   -0.7770   22.4490 O   0  0  0  0  0  0  0  0  0  0  0  0
   25.2060    1.3220   21.4450 C   0  0  0  0  0  0  0  0  0  0  0  0
   25.8340    2.2740   22.3810 N   0  0  0  0  0  0  0  0  0  0  0  0
   26.2420    1.6080   23.6320 C   0  0  0  0  0  0  0  0  0  0  0  0
   27.3500    2.3500   24.4280 C   0  0  0  0  0  0  0  0  0  0  0  0
   27.4350    3.8040   24.2030 N   0  0  0  0  0  0  0  0  0  0  0  0
   26.2670    4.4840   24.7680 C   0  0  0  0  0  0  0  0  0  0  0  0
   27.5460    4.0770   22.7520 C   0  0  0  0  0  0  0  0  0  0  0  0
   26.9700    2.9970   21.7940 C   0  0  0  0  0  0  0  0  0  0  0  0
   23.6160   -1.8610   20.1980 C   0  0  0  0  0  0  0  0  0  0  0  0
   22.9800   -2.6970   19.2610 C   0  0  0  0  0  0  0  0  0  0  0  0
   21.2910   -2.7720   16.2440 C   0  0  0  0  0  0  0  0  0  0  0  0
   21.2890   -1.3870   16.4790 C   0  0  0  0  0  0  0  0  0  0  0  0
   22.0260   -0.5310   15.6570 C   0  0  0  0  0  0  0  0  0  0  0  0
   22.7660   -1.0530   14.5960 C   0  0  0  0  0  0  0  0  0  0  0  0
   22.7720   -2.4260   14.3530 C   0  0  0  0  0  0  0  0  0  0  0  0
   22.0370   -3.2850   15.1730 C   0  0  0  0  0  0  0  0  0  0  0  0
   14.1811   -3.8938   13.7445 H   0  0  0  0  0  0  0  0  0  0  0  0
   14.8250   -3.1988   12.2184 H   0  0  0  0  0  0  0  0  0  0  0  0
   13.2481   -4.0591   12.2184 H   0  0  0  0  0  0  0  0  0  0  0  0
   18.3349   -3.3518   12.0451 H   0  0  0  0  0  0  0  0  0  0  0  0
   19.8275   -2.8925   14.0014 H   0  0  0  0  0  0  0  0  0  0  0  0
   16.0712   -6.2224   14.3948 H   0  0  0  0  0  0  0  0  0  0  0  0
   16.9600   -6.4330   16.9400 H   0  0  0  0  0  0  0  0  0  0  0  0
   20.6260   -4.6990   18.8630 H   0  0  0  0  0  0  0  0  0  0  0  0
   19.8608   -2.6471   20.5475 H   0  0  0  0  0  0  0  0  0  0  0  0
   20.9733   -1.1741   22.1944 H   0  0  0  0  0  0  0  0  0  0  0  0
   23.1560   -0.1032   24.2607 H   0  0  0  0  0  0  0  0  0  0  0  0
   22.7948    1.2811   23.1743 H   0  0  0  0  0  0  0  0  0  0  0  0
   21.7266   -0.1631   23.1743 H   0  0  0  0  0  0  0  0  0  0  0  0
   25.8709    1.1888   20.5789 H   0  0  0  0  0  0  0  0  0  0  0  0
   24.2324    1.7392   21.1483 H   0  0  0  0  0  0  0  0  0  0  0  0
   25.3562    1.5194   24.2782 H   0  0  0  0  0  0  0  0  0  0  0  0
   26.6646    0.6343   23.3433 H   0  0  0  0  0  0  0  0  0  0  0  0
   27.1646    2.1843   25.4995 H   0  0  0  0  0  0  0  0  0  0  0  0
   28.3041    1.9354   24.0705 H   0  0  0  0  0  0  0  0  0  0  0  0
   26.3203    4.4529   25.8663 H   0  0  0  0  0  0  0  0  0  0  0  0
   26.2537    5.5310   24.4310 H   0  0  0  0  0  0  0  0  0  0  0  0
   25.3499    3.9787   24.4310 H   0  0  0  0  0  0  0  0  0  0  0  0
   27.0171    5.0198   22.5485 H   0  0  0  0  0  0  0  0  0  0  0  0
   28.6258    4.1028   22.5438 H   0  0  0  0  0  0  0  0  0  0  0  0
   26.6354    3.4884   20.8685 H   0  0  0  0  0  0  0  0  0  0  0  0
   27.7670    2.2649   21.5972 H   0  0  0  0  0  0  0  0  0  0  0  0
   24.6857   -1.6373   20.0727 H   0  0  0  0  0  0  0  0  0  0  0  0
   23.5656   -3.1105   18.4267 H   0  0  0  0  0  0  0  0  0  0  0  0
   20.7042   -0.9745   17.3144 H   0  0  0  0  0  0  0  0  0  0  0  0
   22.0228    0.5526   15.8461 H   0  0  0  0  0  0  0  0  0  0  0  0
   23.3467   -0.3792   13.9489 H   0  0  0  0  0  0  0  0  0  0  0  0
   23.3563   -2.8330   13.5146 H   0  0  0  0  0  0  0  0  0  0  0  0
   22.0433   -4.3676   14.9781 H   0  0  0  0  0  0  0  0  0  0  0  0
  1  2  1  0
  2  3  1  0
  3  4  2  0
  3  5  1  0
  5  6  1  0
  6  7  2  0
  7  8  1  0
  8  9  2  0
  9 10  1  0
  9 11  1  0
 11 12  1  0
 12 13  2  0
 12 14  1  0
 14 15  2  0
 15 16  1  0
 16 17  1  0
 17 18  1  0
 18 19  2  0
 19 20  1  0
 20 21  1  0
 21 22  1  0
 21 23  1  0
 23 24  2  0
 23 25  1  0
 25 26  1  0
 26 27  1  0
 27 28  1  0
 28 29  1  0
 29 30  1  0
 29 31  1  0
 31 32  1  0
 20 33  2  0
 33 34  1  0
 15 35  1  0
 35 36  2  0
 36 37  1  0
 37 38  2  0
 38 39  1  0
 39 40  2  0
 10  5  2  0
 34 17  2  0
 40 35  1  0
 14  8  1  0
 32 26  1  0
  1 41  1  0
  1 42  1  0
  1 43  1  0
  6 44  1  0
  7 45  1  0
 10 46  1  0
 11 47  1  0
 16 48  1  0
 18 49  1  0
 19 50  1  0
 22 51  1  0
 22 52  1  0
 22 53  1  0
 25 54  1  0
 25 55  1  0
 27 56  1  0
 27 57  1  0
 28 58  1  0
 28 59  1  0
 30 60  1  0
 30 61  1  0
 30 62  1  0
 31 63  1  0
 31 64  1  0
 32 65  1  0
 32 66  1  0
 33 67  1  0
 34 68  1  0
 36 69  1  0
 37 70  1  0
 38 71  1  0
 39 72  1  0
 40 73  1  0
M  END
>  <meeko>  (5) 
{"is_sidechain": false}

>  <vina_affinity_kcal_mol>  (5) 
-3.496

>  <pose_rank>  (5) 
5

$$$$
