
     RDKit          3D

 46 49  0  0  0  0  0  0  0  0999 V2000
   -3.1711    4.5938   -0.2337 C   0  0  0  0  0  0  0  0  0  0  0  0
   -3.7455    3.2847   -0.0598 N   0  0  0  0  0  0  0  0  0  0  0  0
   -3.4871    2.2669   -0.9502 C   0  0  0  0  0  0  0  0  0  0  0  0
   -2.8621    2.4224   -1.9938 O   0  0  0  0  0  0  0  0  0  0  0  0
   -4.0462    0.9288   -0.6166 C   0  0  0  0  0  0  0  0  0  0  0  0
   -4.6093    0.2185   -1.6915 C   0  0  0  0  0  0  0  0  0  0  0  0
   -5.1759   -1.0403   -1.4950 C   0  0  0  0  0  0  0  0  0  0  0  0
   -5.1797   -1.6045   -0.2239 C   0  0  0  0  0  0  0  0  0  0  0  0
   -4.6061   -0.9160    0.8474 C   0  0  0  0  0  0  0  0  0  0  0  0
   -4.0227    0.3501    0.6655 C   0  0  0  0  0  0  0  0  0  0  0  0
   -3.2643    1.1018    2.1066 S   0  0  0  0  0  0  0  0  0  0  0  0
   -1.6245    0.3972    1.9982 C   0  0  0  0  0  0  0  0  0  0  0  0
   -0.6976    0.8989    1.0805 C   0  0  0  0  0  0  0  0  0  0  0  0
    0.5911    0.3542    0.9840 C   0  0  0  0  0  0  0  0  0  0  0  0
    0.9553   -0.7155    1.8267 C   0  0  0  0  0  0  0  0  0  0  0  0
    2.1128   -1.5293    2.0427 C   0  0  0  0  0  0  0  0  0  0  0  0
    3.3597   -1.4768    1.3389 C   0  0  0  0  0  0  0  0  0  0  0  0
    3.5260   -1.1891    0.0363 C   0  0  0  0  0  0  0  0  0  0  0  0
    4.8304   -1.1637   -0.6404 C   0  0  0  0  0  0  0  0  0  0  0  0
    4.9000   -0.9251   -2.0103 C   0  0  0  0  0  0  0  0  0  0  0  0
    6.1489   -0.9003   -2.6275 C   0  0  0  0  0  0  0  0  0  0  0  0
    7.2892   -1.1123   -1.8636 C   0  0  0  0  0  0  0  0  0  0  0  0
    7.1315   -1.3405   -0.5078 C   0  0  0  0  0  0  0  0  0  0  0  0
    5.9335   -1.3689    0.1162 N   0  0  0  0  0  0  0  0  0  0  0  0
    1.9189   -2.3880    3.0542 N   0  0  0  0  0  0  0  0  0  0  0  0
    0.6573   -2.1633    3.4433 N   0  0  0  0  0  0  0  0  0  0  0  0
    0.0203   -1.1725    2.7502 C   0  0  0  0  0  0  0  0  0  0  0  0
   -1.2729   -0.6468    2.8646 C   0  0  0  0  0  0  0  0  0  0  0  0
   -2.1315    4.5656    0.1034 H   0  0  0  0  0  0  0  0  0  0  0  0
   -3.2047    4.8883   -1.2859 H   0  0  0  0  0  0  0  0  0  0  0  0
   -3.7372    5.3052    0.3718 H   0  0  0  0  0  0  0  0  0  0  0  0
   -4.1363    3.0476    0.8446 H   0  0  0  0  0  0  0  0  0  0  0  0
   -4.6090    0.6542   -2.6898 H   0  0  0  0  0  0  0  0  0  0  0  0
   -5.6114   -1.5775   -2.3341 H   0  0  0  0  0  0  0  0  0  0  0  0
   -5.6200   -2.5863   -0.0658 H   0  0  0  0  0  0  0  0  0  0  0  0
   -4.6082   -1.3863    1.8289 H   0  0  0  0  0  0  0  0  0  0  0  0
   -0.9592    1.7262    0.4238 H   0  0  0  0  0  0  0  0  0  0  0  0
    1.2953    0.7709    0.2704 H   0  0  0  0  0  0  0  0  0  0  0  0
    4.2320   -1.7456    1.9323 H   0  0  0  0  0  0  0  0  0  0  0  0
    2.6670   -0.9802   -0.5916 H   0  0  0  0  0  0  0  0  0  0  0  0
    4.0032   -0.7616   -2.5988 H   0  0  0  0  0  0  0  0  0  0  0  0
    6.2288   -0.7176   -3.6952 H   0  0  0  0  0  0  0  0  0  0  0  0
    8.2760   -1.1003   -2.3122 H   0  0  0  0  0  0  0  0  0  0  0  0
    7.9902   -1.5120    0.1349 H   0  0  0  0  0  0  0  0  0  0  0  0
    0.2872   -2.7212    4.2037 H   0  0  0  0  0  0  0  0  0  0  0  0
   -1.9722   -1.0337    3.5986 H   0  0  0  0  0  0  0  0  0  0  0  0
  1  2  1  0
  2  3  1  0
  3  4  2  0
  3  5  1  0
  5  6  2  0
  6  7  1  0
  7  8  2  0
  8  9  1  0
  9 10  2  0
 10 11  1  0
 11 12  1  0
 12 13  2  0
 13 14  1  0
 14 15  2  0
 15 16  1  0
 16 17  1  0
 17 18  2  0
 18 19  1  0
 19 20  2  0
 20 21  1  0
 21 22  2  0
 22 23  1  0
 23 24  2  0
 16 25  2  0
 25 26  1  0
 26 27  1  0
 27 28  2  0
 10  5  1  0
 28 12  1  0
 27 15  1  0
 24 19  1  0
  1 29  1  0
  1 30  1  0
  1 31  1  0
  2 32  1  0
  6 33  1  0
  7 34  1  0
  8 35  1  0
  9 36  1  0
 13 37  1  0
 14 38  1  0
 17 39  1  0
 18 40  1  0
 20 41  1  0
 21 42  1  0
 22 43  1  0
 23 44  1  0
 26 45  1  0
 28 46  1  0
M  END
$$$$
