
     RDKit          3D

 46 49  0  0  0  0  0  0  0  0999 V2000
  -37.9310  156.8210    3.8540 C   0  0  0  0  0  0  0  0  0  0  0  0
  -38.9590  157.6000    3.2150 N   0  0  0  0  0  0  0  0  0  0  0  0
  -38.7870  158.1070    1.9460 C   0  0  0  0  0  0  0  0  0  0  0  0
  -37.7310  158.0370    1.3260 O   0  0  0  0  0  0  0  0  0  0  0  0
  -39.9520  158.8070    1.3420 C   0  0  0  0  0  0  0  0  0  0  0  0
  -40.9440  159.2320    2.2440 C   0  0  0  0  0  0  0  0  0  0  0  0
  -42.0880  159.8860    1.7880 C   0  0  0  0  0  0  0  0  0  0  0  0
  -42.2500  160.1290    0.4280 C   0  0  0  0  0  0  0  0  0  0  0  0
  -41.2620  159.7280   -0.4740 C   0  0  0  0  0  0  0  0  0  0  0  0
  -40.0980  159.0750   -0.0330 C   0  0  0  0  0  0  0  0  0  0  0  0
  -38.8780  158.6690   -1.2830 S   0  0  0  0  0  0  0  0  0  0  0  0
  -38.8410  160.2080   -2.1930 C   0  0  0  0  0  0  0  0  0  0  0  0
  -38.7890  160.2030   -3.5880 C   0  0  0  0  0  0  0  0  0  0  0  0
  -38.7580  161.4040   -4.3140 C   0  0  0  0  0  0  0  0  0  0  0  0
  -38.7800  162.6320   -3.6210 C   0  0  0  0  0  0  0  0  0  0  0  0
  -38.7600  164.0220   -3.9590 C   0  0  0  0  0  0  0  0  0  0  0  0
  -38.6670  164.6020   -5.2660 C   0  0  0  0  0  0  0  0  0  0  0  0
  -38.1080  164.0360   -6.3500 C   0  0  0  0  0  0  0  0  0  0  0  0
  -38.0270  164.6830   -7.6660 C   0  0  0  0  0  0  0  0  0  0  0  0
  -38.1200  163.9170   -8.8250 C   0  0  0  0  0  0  0  0  0  0  0  0
  -38.0470  164.5550  -10.0620 C   0  0  0  0  0  0  0  0  0  0  0  0
  -37.8860  165.9330  -10.1080 C   0  0  0  0  0  0  0  0  0  0  0  0
  -37.8050  166.6190   -8.9090 C   0  0  0  0  0  0  0  0  0  0  0  0
  -37.8730  166.0270   -7.6970 N   0  0  0  0  0  0  0  0  0  0  0  0
  -38.8680  164.7880   -2.8630 N   0  0  0  0  0  0  0  0  0  0  0  0
  -38.9100  163.9120   -1.8500 N   0  0  0  0  0  0  0  0  0  0  0  0
  -38.8610  162.6020   -2.2330 C   0  0  0  0  0  0  0  0  0  0  0  0
  -38.8920  161.4170   -1.4860 C   0  0  0  0  0  0  0  0  0  0  0  0
  -38.0361  156.9006    4.9461 H   0  0  0  0  0  0  0  0  0  0  0  0
  -38.0281  155.7677    3.5521 H   0  0  0  0  0  0  0  0  0  0  0  0
  -36.9432  157.1994    3.5521 H   0  0  0  0  0  0  0  0  0  0  0  0
  -39.8970  157.5660    3.5980 H   0  0  0  0  0  0  0  0  0  0  0  0
  -40.8160  159.0465    3.3207 H   0  0  0  0  0  0  0  0  0  0  0  0
  -42.8602  160.2089    2.5018 H   0  0  0  0  0  0  0  0  0  0  0  0
  -43.1553  160.6364    0.0633 H   0  0  0  0  0  0  0  0  0  0  0  0
  -41.3970  159.9265   -1.5475 H   0  0  0  0  0  0  0  0  0  0  0  0
  -38.7721  159.2438   -4.1262 H   0  0  0  0  0  0  0  0  0  0  0  0
  -38.7169  161.3874   -5.4131 H   0  0  0  0  0  0  0  0  0  0  0  0
  -39.0942  165.6074   -5.3950 H   0  0  0  0  0  0  0  0  0  0  0  0
  -37.6852  163.0260   -6.2447 H   0  0  0  0  0  0  0  0  0  0  0  0
  -38.2490  162.8262   -8.7653 H   0  0  0  0  0  0  0  0  0  0  0  0
  -38.1163  163.9724  -10.9925 H   0  0  0  0  0  0  0  0  0  0  0  0
  -37.8246  166.4640  -11.0694 H   0  0  0  0  0  0  0  0  0  0  0  0
  -37.6777  167.7110   -8.9451 H   0  0  0  0  0  0  0  0  0  0  0  0
  -38.9810  164.2780   -0.9080 H   0  0  0  0  0  0  0  0  0  0  0  0
  -38.9539  161.4349   -0.3879 H   0  0  0  0  0  0  0  0  0  0  0  0
  1  2  1  0
  2  3  1  0
  3  4  2  0
  3  5  1  0
  5  6  2  0
  6  7  1  0
  7  8  2  0
  8  9  1  0
  9 10  2  0
 10 11  1  0
 11 12  1  0
 12 13  2  0
 13 14  1  0
 14 15  2  0
 15 16  1  0
 16 17  1  0
 17 18  2  0
 18 19  1  0
 19 20  2  0
 20 21  1  0
 21 22  2  0
 22 23  1  0
 23 24  2  0
 16 25  2  0
 25 26  1  0
 26 27  1  0
 27 28  2  0
 10  5  1  0
 28 12  1  0
 27 15  1  0
 24 19  1  0
  1 29  1  0
  1 30  1  0
  1 31  1  0
  2 32  1  0
  6 33  1  0
  7 34  1  0
  8 35  1  0
  9 36  1  0
 13 37  1  0
 14 38  1  0
 17 39  1  0
 18 40  1  0
 20 41  1  0
 21 42  1  0
 22 43  1  0
 23 44  1  0
 26 45  1  0
 28 46  1  0
M  END
>  <meeko>  (1) 
{"is_sidechain": false}

>  <vina_affinity_kcal_mol>  (1) 
-10.825

>  <pose_rank>  (1) 
1

$$$$

     RDKit          3D

 46 49  0  0  0  0  0  0  0  0999 V2000
  -37.8490  162.3440   -9.1210 C   0  0  0  0  0  0  0  0  0  0  0  0
  -38.2480  162.7850   -7.8100 N   0  0  0  0  0  0  0  0  0  0  0  0
  -37.5280  162.4390   -6.6890 C   0  0  0  0  0  0  0  0  0  0  0  0
  -36.5850  161.6550   -6.7050 O   0  0  0  0  0  0  0  0  0  0  0  0
  -37.9690  163.0350   -5.3990 C   0  0  0  0  0  0  0  0  0  0  0  0
  -37.5850  164.3700   -5.1810 C   0  0  0  0  0  0  0  0  0  0  0  0
  -37.9300  165.0270   -4.0010 C   0  0  0  0  0  0  0  0  0  0  0  0
  -38.6690  164.3590   -3.0290 C   0  0  0  0  0  0  0  0  0  0  0  0
  -39.0720  163.0390   -3.2440 C   0  0  0  0  0  0  0  0  0  0  0  0
  -38.7400  162.3640   -4.4310 C   0  0  0  0  0  0  0  0  0  0  0  0
  -39.3700  160.6940   -4.6120 S   0  0  0  0  0  0  0  0  0  0  0  0
  -39.1490  160.0950   -2.9420 C   0  0  0  0  0  0  0  0  0  0  0  0
  -38.2510  159.0590   -2.6760 C   0  0  0  0  0  0  0  0  0  0  0  0
  -38.0690  158.5780   -1.3700 C   0  0  0  0  0  0  0  0  0  0  0  0
  -38.8040  159.1530   -0.3130 C   0  0  0  0  0  0  0  0  0  0  0  0
  -38.9180  158.9680    1.1020 C   0  0  0  0  0  0  0  0  0  0  0  0
  -38.2450  157.9960    1.9130 C   0  0  0  0  0  0  0  0  0  0  0  0
  -37.8700  158.1530    3.1940 C   0  0  0  0  0  0  0  0  0  0  0  0
  -37.1680  157.1260    3.9760 C   0  0  0  0  0  0  0  0  0  0  0  0
  -37.8910  156.1240    4.6180 C   0  0  0  0  0  0  0  0  0  0  0  0
  -37.2010  155.1580    5.3480 C   0  0  0  0  0  0  0  0  0  0  0  0
  -35.8160  155.2170    5.4160 C   0  0  0  0  0  0  0  0  0  0  0  0
  -35.1750  156.2450    4.7470 C   0  0  0  0  0  0  0  0  0  0  0  0
  -35.8170  157.1930    4.0320 N   0  0  0  0  0  0  0  0  0  0  0  0
  -39.7520  159.8680    1.6420 N   0  0  0  0  0  0  0  0  0  0  0  0
  -40.1950  160.5790    0.5960 N   0  0  0  0  0  0  0  0  0  0  0  0
  -39.6670  160.2030   -0.6070 C   0  0  0  0  0  0  0  0  0  0  0  0
  -39.8670  160.7000   -1.9010 C   0  0  0  0  0  0  0  0  0  0  0  0
  -37.1137  161.5313   -9.0265 H   0  0  0  0  0  0  0  0  0  0  0  0
  -38.7302  161.9793   -9.6691 H   0  0  0  0  0  0  0  0  0  0  0  0
  -37.3982  163.1844   -9.6691 H   0  0  0  0  0  0  0  0  0  0  0  0
  -38.9130  163.5480   -7.7410 H   0  0  0  0  0  0  0  0  0  0  0  0
  -37.0059  164.9018   -5.9502 H   0  0  0  0  0  0  0  0  0  0  0  0
  -37.6193  166.0696   -3.8386 H   0  0  0  0  0  0  0  0  0  0  0  0
  -38.9355  164.8702   -2.0922 H   0  0  0  0  0  0  0  0  0  0  0  0
  -39.6586  162.5196   -2.4719 H   0  0  0  0  0  0  0  0  0  0  0  0
  -37.6778  158.6133   -3.5023 H   0  0  0  0  0  0  0  0  0  0  0  0
  -37.3599  157.7605   -1.1730 H   0  0  0  0  0  0  0  0  0  0  0  0
  -38.0134  157.0294    1.4418 H   0  0  0  0  0  0  0  0  0  0  0  0
  -38.1027  159.1084    3.6870 H   0  0  0  0  0  0  0  0  0  0  0  0
  -38.9885  156.0954    4.5501 H   0  0  0  0  0  0  0  0  0  0  0  0
  -37.7488  154.3565    5.8653 H   0  0  0  0  0  0  0  0  0  0  0  0
  -35.2447  154.4687    5.9849 H   0  0  0  0  0  0  0  0  0  0  0  0
  -34.0774  156.2924    4.8011 H   0  0  0  0  0  0  0  0  0  0  0  0
  -40.8600  161.3230    0.7740 H   0  0  0  0  0  0  0  0  0  0  0  0
  -40.5602  161.5323   -2.0929 H   0  0  0  0  0  0  0  0  0  0  0  0
  1  2  1  0
  2  3  1  0
  3  4  2  0
  3  5  1  0
  5  6  2  0
  6  7  1  0
  7  8  2  0
  8  9  1  0
  9 10  2  0
 10 11  1  0
 11 12  1  0
 12 13  2  0
 13 14  1  0
 14 15  2  0
 15 16  1  0
 16 17  1  0
 17 18  2  0
 18 19  1  0
 19 20  2  0
 20 21  1  0
 21 22  2  0
 22 23  1  0
 23 24  2  0
 16 25  2  0
 25 26  1  0
 26 27  1  0
 27 28  2  0
 10  5  1  0
 28 12  1  0
 27 15  1  0
 24 19  1  0
  1 29  1  0
  1 30  1  0
  1 31  1  0
  2 32  1  0
  6 33  1  0
  7 34  1  0
  8 35  1  0
  9 36  1  0
 13 37  1  0
 14 38  1  0
 17 39  1  0
 18 40  1  0
 20 41  1  0
 21 42  1  0
 22 43  1  0
 23 44  1  0
 26 45  1  0
 28 46  1  0
M  END
>  <meeko>  (2) 
{"is_sidechain": false}

>  <vina_affinity_kcal_mol>  (2) 
-10.34

>  <pose_rank>  (2) 
2

$$$$

     RDKit          3D

 46 49  0  0  0  0  0  0  0  0999 V2000
  -37.7330  169.3870  -10.6790 C   0  0  0  0  0  0  0  0  0  0  0  0
  -36.9020  168.2120  -10.6330 N   0  0  0  0  0  0  0  0  0  0  0  0
  -37.2100  167.0880  -11.3660 C   0  0  0  0  0  0  0  0  0  0  0  0
  -38.2490  166.9610  -12.0060 O   0  0  0  0  0  0  0  0  0  0  0  0
  -36.2280  165.9720  -11.3250 C   0  0  0  0  0  0  0  0  0  0  0  0
  -34.8770  166.3420  -11.4500 C   0  0  0  0  0  0  0  0  0  0  0  0
  -33.8700  165.3790  -11.4410 C   0  0  0  0  0  0  0  0  0  0  0  0
  -34.2000  164.0350  -11.2980 C   0  0  0  0  0  0  0  0  0  0  0  0
  -35.5370  163.6580  -11.1530 C   0  0  0  0  0  0  0  0  0  0  0  0
  -36.5660  164.6160  -11.1530 C   0  0  0  0  0  0  0  0  0  0  0  0
  -38.2340  164.0090  -10.8960 S   0  0  0  0  0  0  0  0  0  0  0  0
  -38.2130  163.7850   -9.1220 C   0  0  0  0  0  0  0  0  0  0  0  0
  -38.1720  162.5030   -8.5710 C   0  0  0  0  0  0  0  0  0  0  0  0
  -38.1570  162.3130   -7.1810 C   0  0  0  0  0  0  0  0  0  0  0  0
  -38.1830  163.4370   -6.3290 C   0  0  0  0  0  0  0  0  0  0  0  0
  -38.1830  163.6790   -4.9190 C   0  0  0  0  0  0  0  0  0  0  0  0
  -38.1890  162.7070   -3.8660 C   0  0  0  0  0  0  0  0  0  0  0  0
  -39.1440  161.7880   -3.6380 C   0  0  0  0  0  0  0  0  0  0  0  0
  -39.1070  160.8220   -2.5320 C   0  0  0  0  0  0  0  0  0  0  0  0
  -38.5650  159.5550   -2.7310 C   0  0  0  0  0  0  0  0  0  0  0  0
  -38.5360  158.6590   -1.6650 C   0  0  0  0  0  0  0  0  0  0  0  0
  -39.0440  159.0500   -0.4330 C   0  0  0  0  0  0  0  0  0  0  0  0
  -39.5630  160.3280   -0.3200 C   0  0  0  0  0  0  0  0  0  0  0  0
  -39.6030  161.2170   -1.3360 N   0  0  0  0  0  0  0  0  0  0  0  0
  -38.1480  164.9930   -4.6540 N   0  0  0  0  0  0  0  0  0  0  0  0
  -38.1720  165.5750   -5.8600 N   0  0  0  0  0  0  0  0  0  0  0  0
  -38.1930  164.7010   -6.9090 C   0  0  0  0  0  0  0  0  0  0  0  0
  -38.2100  164.9160   -8.2930 C   0  0  0  0  0  0  0  0  0  0  0  0
  -37.9637  169.7133   -9.6542 H   0  0  0  0  0  0  0  0  0  0  0  0
  -37.2018  170.1913  -11.2090 H   0  0  0  0  0  0  0  0  0  0  0  0
  -38.6683  169.1541  -11.2090 H   0  0  0  0  0  0  0  0  0  0  0  0
  -35.9650  168.3000  -10.2550 H   0  0  0  0  0  0  0  0  0  0  0  0
  -34.6121  167.4043  -11.5561 H   0  0  0  0  0  0  0  0  0  0  0  0
  -32.8174  165.6804  -11.5466 H   0  0  0  0  0  0  0  0  0  0  0  0
  -33.4091  163.2705  -11.2991 H   0  0  0  0  0  0  0  0  0  0  0  0
  -35.7891  162.5936  -11.0368 H   0  0  0  0  0  0  0  0  0  0  0  0
  -38.1511  161.6279   -9.2372 H   0  0  0  0  0  0  0  0  0  0  0  0
  -38.1253  161.2974   -6.7596 H   0  0  0  0  0  0  0  0  0  0  0  0
  -37.3304  162.7132   -3.1785 H   0  0  0  0  0  0  0  0  0  0  0  0
  -40.0054  161.7578   -4.3214 H   0  0  0  0  0  0  0  0  0  0  0  0
  -38.1660  159.2662   -3.7146 H   0  0  0  0  0  0  0  0  0  0  0  0
  -38.1148  157.6515   -1.7976 H   0  0  0  0  0  0  0  0  0  0  0  0
  -39.0341  158.3645    0.4272 H   0  0  0  0  0  0  0  0  0  0  0  0
  -39.9669  160.6381    0.6551 H   0  0  0  0  0  0  0  0  0  0  0  0
  -38.1640  166.5880   -5.8990 H   0  0  0  0  0  0  0  0  0  0  0  0
  -38.2206  165.9325   -8.7132 H   0  0  0  0  0  0  0  0  0  0  0  0
  1  2  1  0
  2  3  1  0
  3  4  2  0
  3  5  1  0
  5  6  2  0
  6  7  1  0
  7  8  2  0
  8  9  1  0
  9 10  2  0
 10 11  1  0
 11 12  1  0
 12 13  2  0
 13 14  1  0
 14 15  2  0
 15 16  1  0
 16 17  1  0
 17 18  2  0
 18 19  1  0
 19 20  2  0
 20 21  1  0
 21 22  2  0
 22 23  1  0
 23 24  2  0
 16 25  2  0
 25 26  1  0
 26 27  1  0
 27 28  2  0
 10  5  1  0
 28 12  1  0
 27 15  1  0
 24 19  1  0
  1 29  1  0
  1 30  1  0
  1 31  1  0
  2 32  1  0
  6 33  1  0
  7 34  1  0
  8 35  1  0
  9 36  1  0
 13 37  1  0
 14 38  1  0
 17 39  1  0
 18 40  1  0
 20 41  1  0
 21 42  1  0
 22 43  1  0
 23 44  1  0
 26 45  1  0
 28 46  1  0
M  END
>  <meeko>  (3) 
{"is_sidechain": false}

>  <vina_affinity_kcal_mol>  (3) 
-10.114

>  <pose_rank>  (3) 
3

$$$$

     RDKit          3D

 46 49  0  0  0  0  0  0  0  0999 V2000
  -36.7190  160.0070  -10.9300 C   0  0  0  0  0  0  0  0  0  0  0  0
  -36.0510  161.2790  -11.0170 N   0  0  0  0  0  0  0  0  0  0  0  0
  -36.6670  162.3730  -11.5810 C   0  0  0  0  0  0  0  0  0  0  0  0
  -37.7550  162.3230  -12.1430 O   0  0  0  0  0  0  0  0  0  0  0  0
  -35.9260  163.6620  -11.5230 C   0  0  0  0  0  0  0  0  0  0  0  0
  -34.5710  163.6050  -11.8960 C   0  0  0  0  0  0  0  0  0  0  0  0
  -33.7750  164.7490  -11.8660 C   0  0  0  0  0  0  0  0  0  0  0  0
  -34.3250  165.9640  -11.4710 C   0  0  0  0  0  0  0  0  0  0  0  0
  -35.6740  166.0360  -11.1170 C   0  0  0  0  0  0  0  0  0  0  0  0
  -36.4940  164.8950  -11.1490 C   0  0  0  0  0  0  0  0  0  0  0  0
  -38.2230  165.1320  -10.7330 S   0  0  0  0  0  0  0  0  0  0  0  0
  -38.2110  164.5860   -9.0300 C   0  0  0  0  0  0  0  0  0  0  0  0
  -38.1860  163.2240   -8.7240 C   0  0  0  0  0  0  0  0  0  0  0  0
  -38.1780  162.7820   -7.3930 C   0  0  0  0  0  0  0  0  0  0  0  0
  -38.1940  163.7300   -6.3490 C   0  0  0  0  0  0  0  0  0  0  0  0
  -38.1960  163.7090   -4.9180 C   0  0  0  0  0  0  0  0  0  0  0  0
  -38.2180  162.5600   -4.0620 C   0  0  0  0  0  0  0  0  0  0  0  0
  -39.2950  162.0550   -3.4360 C   0  0  0  0  0  0  0  0  0  0  0  0
  -39.2570  160.8800   -2.5550 C   0  0  0  0  0  0  0  0  0  0  0  0
  -38.5940  159.7250   -2.9620 C   0  0  0  0  0  0  0  0  0  0  0  0
  -38.5670  158.6260   -2.1060 C   0  0  0  0  0  0  0  0  0  0  0  0
  -39.1990  158.7090   -0.8720 C   0  0  0  0  0  0  0  0  0  0  0  0
  -39.8330  159.8950   -0.5450 C   0  0  0  0  0  0  0  0  0  0  0  0
  -39.8740  160.9750   -1.3530 N   0  0  0  0  0  0  0  0  0  0  0  0
  -38.1470  164.9510   -4.4160 N   0  0  0  0  0  0  0  0  0  0  0  0
  -38.1600  165.7460   -5.4950 N   0  0  0  0  0  0  0  0  0  0  0  0
  -38.1880  165.0800   -6.6870 C   0  0  0  0  0  0  0  0  0  0  0  0
  -38.1980  165.5450   -8.0080 C   0  0  0  0  0  0  0  0  0  0  0  0
  -36.8600  159.7385   -9.8726 H   0  0  0  0  0  0  0  0  0  0  0  0
  -37.6989  160.0728  -11.4254 H   0  0  0  0  0  0  0  0  0  0  0  0
  -36.1086  159.2376  -11.4254 H   0  0  0  0  0  0  0  0  0  0  0  0
  -35.2280  161.4300  -10.4440 H   0  0  0  0  0  0  0  0  0  0  0  0
  -34.1346  162.6470  -12.2149 H   0  0  0  0  0  0  0  0  0  0  0  0
  -32.7149  164.6910  -12.1539 H   0  0  0  0  0  0  0  0  0  0  0  0
  -33.6980  166.8672  -11.4375 H   0  0  0  0  0  0  0  0  0  0  0  0
  -36.1017  167.0013  -10.8081 H   0  0  0  0  0  0  0  0  0  0  0  0
  -38.1724  162.4860   -9.5396 H   0  0  0  0  0  0  0  0  0  0  0  0
  -38.1594  161.7059   -7.1655 H   0  0  0  0  0  0  0  0  0  0  0  0
  -37.2613  162.0413   -3.9017 H   0  0  0  0  0  0  0  0  0  0  0  0
  -40.2638  162.5518   -3.5929 H   0  0  0  0  0  0  0  0  0  0  0  0
  -38.0995  159.6810   -3.9436 H   0  0  0  0  0  0  0  0  0  0  0  0
  -38.0503  157.7019   -2.4045 H   0  0  0  0  0  0  0  0  0  0  0  0
  -39.1957  157.8576   -0.1755 H   0  0  0  0  0  0  0  0  0  0  0  0
  -40.3336  159.9612    0.4323 H   0  0  0  0  0  0  0  0  0  0  0  0
  -38.1400  166.7480   -5.3470 H   0  0  0  0  0  0  0  0  0  0  0  0
  -38.1957  166.6214   -8.2347 H   0  0  0  0  0  0  0  0  0  0  0  0
  1  2  1  0
  2  3  1  0
  3  4  2  0
  3  5  1  0
  5  6  2  0
  6  7  1  0
  7  8  2  0
  8  9  1  0
  9 10  2  0
 10 11  1  0
 11 12  1  0
 12 13  2  0
 13 14  1  0
 14 15  2  0
 15 16  1  0
 16 17  1  0
 17 18  2  0
 18 19  1  0
 19 20  2  0
 20 21  1  0
 21 22  2  0
 22 23  1  0
 23 24  2  0
 16 25  2  0
 25 26  1  0
 26 27  1  0
 27 28  2  0
 10  5  1  0
 28 12  1  0
 27 15  1  0
 24 19  1  0
  1 29  1  0
  1 30  1  0
  1 31  1  0
  2 32  1  0
  6 33  1  0
  7 34  1  0
  8 35  1  0
  9 36  1  0
 13 37  1  0
 14 38  1  0
 17 39  1  0
 18 40  1  0
 20 41  1  0
 21 42  1  0
 22 43  1  0
 23 44  1  0
 26 45  1  0
 28 46  1  0
M  END
>  <meeko>  (4) 
{"is_sidechain": false}

>  <vina_affinity_kcal_mol>  (4) 
-9.919

>  <pose_rank>  (4) 
4

$$$$

     RDKit          3D

 46 49  0  0  0  0  0  0  0  0999 V2000
  -34.0340  166.4060  -12.0690 C   0  0  0  0  0  0  0  0  0  0  0  0
  -35.0770  165.4160  -12.1260 N   0  0  0  0  0  0  0  0  0  0  0  0
  -35.0300  164.2810  -11.3490 C   0  0  0  0  0  0  0  0  0  0  0  0
  -34.0660  163.9750  -10.6540 O   0  0  0  0  0  0  0  0  0  0  0  0
  -36.2100  163.3770  -11.4100 C   0  0  0  0  0  0  0  0  0  0  0  0
  -35.9910  162.1270  -12.0160 C   0  0  0  0  0  0  0  0  0  0  0  0
  -37.0290  161.2050  -12.1420 C   0  0  0  0  0  0  0  0  0  0  0  0
  -38.2950  161.5180  -11.6580 C   0  0  0  0  0  0  0  0  0  0  0  0
  -38.5180  162.7490  -11.0360 C   0  0  0  0  0  0  0  0  0  0  0  0
  -37.4820  163.6880  -10.8930 C   0  0  0  0  0  0  0  0  0  0  0  0
  -37.8820  165.2040  -10.0210 S   0  0  0  0  0  0  0  0  0  0  0  0
  -37.9880  164.5810   -8.3480 C   0  0  0  0  0  0  0  0  0  0  0  0
  -37.8180  163.2190   -8.0880 C   0  0  0  0  0  0  0  0  0  0  0  0
  -37.9010  162.7170   -6.7810 C   0  0  0  0  0  0  0  0  0  0  0  0
  -38.1580  163.6030   -5.7140 C   0  0  0  0  0  0  0  0  0  0  0  0
  -38.3180  163.5110   -4.2950 C   0  0  0  0  0  0  0  0  0  0  0  0
  -38.2820  162.3290   -3.4870 C   0  0  0  0  0  0  0  0  0  0  0  0
  -39.3270  161.7680   -2.8520 C   0  0  0  0  0  0  0  0  0  0  0  0
  -39.2310  160.5600   -2.0220 C   0  0  0  0  0  0  0  0  0  0  0  0
  -38.3680  159.5300   -2.3880 C   0  0  0  0  0  0  0  0  0  0  0  0
  -38.2910  158.3970   -1.5810 C   0  0  0  0  0  0  0  0  0  0  0  0
  -39.0710  158.3220   -0.4360 C   0  0  0  0  0  0  0  0  0  0  0  0
  -39.9000  159.3920   -0.1430 C   0  0  0  0  0  0  0  0  0  0  0  0
  -39.9950  160.5010   -0.9060 N   0  0  0  0  0  0  0  0  0  0  0  0
  -38.4900  164.7240   -3.7480 N   0  0  0  0  0  0  0  0  0  0  0  0
  -38.4870  165.5620   -4.7930 N   0  0  0  0  0  0  0  0  0  0  0  0
  -38.2930  164.9570   -6.0030 C   0  0  0  0  0  0  0  0  0  0  0  0
  -38.2160  165.4820   -7.2990 C   0  0  0  0  0  0  0  0  0  0  0  0
  -33.7981  166.6300  -11.0182 H   0  0  0  0  0  0  0  0  0  0  0  0
  -33.1351  166.0210  -12.5726 H   0  0  0  0  0  0  0  0  0  0  0  0
  -34.3717  167.3238  -12.5726 H   0  0  0  0  0  0  0  0  0  0  0  0
  -35.9610  165.6720  -12.5520 H   0  0  0  0  0  0  0  0  0  0  0  0
  -34.9897  161.8740  -12.3947 H   0  0  0  0  0  0  0  0  0  0  0  0
  -36.8474  160.2325  -12.6229 H   0  0  0  0  0  0  0  0  0  0  0  0
  -39.1193  160.7975  -11.7648 H   0  0  0  0  0  0  0  0  0  0  0  0
  -39.5209  162.9872  -10.6519 H   0  0  0  0  0  0  0  0  0  0  0  0
  -37.6160  162.5297   -8.9211 H   0  0  0  0  0  0  0  0  0  0  0  0
  -37.7669  161.6421   -6.5898 H   0  0  0  0  0  0  0  0  0  0  0  0
  -37.3069  161.8325   -3.3749 H   0  0  0  0  0  0  0  0  0  0  0  0
  -40.3132  162.2428   -2.9610 H   0  0  0  0  0  0  0  0  0  0  0  0
  -37.7572  159.6098   -3.2993 H   0  0  0  0  0  0  0  0  0  0  0  0
  -37.6179  157.5693   -1.8492 H   0  0  0  0  0  0  0  0  0  0  0  0
  -39.0321  157.4393    0.2193 H   0  0  0  0  0  0  0  0  0  0  0  0
  -40.5176  159.3345    0.7654 H   0  0  0  0  0  0  0  0  0  0  0  0
  -38.6160  166.5510   -4.6110 H   0  0  0  0  0  0  0  0  0  0  0  0
  -38.3301  166.5599   -7.4864 H   0  0  0  0  0  0  0  0  0  0  0  0
  1  2  1  0
  2  3  1  0
  3  4  2  0
  3  5  1  0
  5  6  2  0
  6  7  1  0
  7  8  2  0
  8  9  1  0
  9 10  2  0
 10 11  1  0
 11 12  1  0
 12 13  2  0
 13 14  1  0
 14 15  2  0
 15 16  1  0
 16 17  1  0
 17 18  2  0
 18 19  1  0
 19 20  2  0
 20 21  1  0
 21 22  2  0
 22 23  1  0
 23 24  2  0
 16 25  2  0
 25 26  1  0
 26 27  1  0
 27 28  2  0
 10  5  1  0
 28 12  1  0
 27 15  1  0
 24 19  1  0
  1 29  1  0
  1 30  1  0
  1 31  1  0
  2 32  1  0
  6 33  1  0
  7 34  1  0
  8 35  1  0
  9 36  1  0
 13 37  1  0
 14 38  1  0
 17 39  1  0
 18 40  1  0
 20 41  1  0
 21 42  1  0
 22 43  1  0
 23 44  1  0
 26 45  1  0
 28 46  1  0
M  END
>  <meeko>  (5) 
{"is_sidechain": false}

>  <vina_affinity_kcal_mol>  (5) 
-9.897

>  <pose_rank>  (5) 
5

$$$$

     RDKit          3D

 46 49  0  0  0  0  0  0  0  0999 V2000
  -42.6380  159.8570    1.8190 C   0  0  0  0  0  0  0  0  0  0  0  0
  -41.5700  159.5020    0.9210 N   0  0  0  0  0  0  0  0  0  0  0  0
  -41.2010  160.3310   -0.1140 C   0  0  0  0  0  0  0  0  0  0  0  0
  -41.8120  161.3520   -0.4150 O   0  0  0  0  0  0  0  0  0  0  0  0
  -40.0180  159.9160   -0.9150 C   0  0  0  0  0  0  0  0  0  0  0  0
  -39.7410  158.5370   -0.9250 C   0  0  0  0  0  0  0  0  0  0  0  0
  -38.6480  158.0350   -1.6300 C   0  0  0  0  0  0  0  0  0  0  0  0
  -37.8250  158.9040   -2.3390 C   0  0  0  0  0  0  0  0  0  0  0  0
  -38.1030  160.2730   -2.3520 C   0  0  0  0  0  0  0  0  0  0  0  0
  -39.2040  160.7960   -1.6540 C   0  0  0  0  0  0  0  0  0  0  0  0
  -39.4890  162.5610   -1.8020 S   0  0  0  0  0  0  0  0  0  0  0  0
  -38.9730  162.8180   -3.4950 C   0  0  0  0  0  0  0  0  0  0  0  0
  -38.4950  164.0640   -3.9070 C   0  0  0  0  0  0  0  0  0  0  0  0
  -38.0890  164.2790   -5.2320 C   0  0  0  0  0  0  0  0  0  0  0  0
  -38.1640  163.2200   -6.1600 C   0  0  0  0  0  0  0  0  0  0  0  0
  -37.8680  163.0220   -7.5460 C   0  0  0  0  0  0  0  0  0  0  0  0
  -37.3820  163.9920   -8.4830 C   0  0  0  0  0  0  0  0  0  0  0  0
  -37.9920  165.1400   -8.8260 C   0  0  0  0  0  0  0  0  0  0  0  0
  -37.4540  166.0940   -9.8060 C   0  0  0  0  0  0  0  0  0  0  0  0
  -36.3820  165.7300  -10.6170 C   0  0  0  0  0  0  0  0  0  0  0  0
  -35.8940  166.6500  -11.5420 C   0  0  0  0  0  0  0  0  0  0  0  0
  -36.4870  167.9020  -11.6340 C   0  0  0  0  0  0  0  0  0  0  0  0
  -37.5500  168.1820  -10.7930 C   0  0  0  0  0  0  0  0  0  0  0  0
  -38.0430  167.3100   -9.8880 N   0  0  0  0  0  0  0  0  0  0  0  0
  -38.0780  161.7480   -7.9080 N   0  0  0  0  0  0  0  0  0  0  0  0
  -38.5400  161.1590   -6.7970 N   0  0  0  0  0  0  0  0  0  0  0  0
  -38.6170  161.9840   -5.7110 C   0  0  0  0  0  0  0  0  0  0  0  0
  -39.0290  161.7440   -4.3940 C   0  0  0  0  0  0  0  0  0  0  0  0
  -42.2962  159.7434    2.8583 H   0  0  0  0  0  0  0  0  0  0  0  0
  -42.9336  160.9017    1.6424 H   0  0  0  0  0  0  0  0  0  0  0  0
  -43.5002  159.1971    1.6424 H   0  0  0  0  0  0  0  0  0  0  0  0
  -40.9340  158.7640    1.1990 H   0  0  0  0  0  0  0  0  0  0  0  0
  -40.3940  157.8470   -0.3704 H   0  0  0  0  0  0  0  0  0  0  0  0
  -38.4371  156.9554   -1.6256 H   0  0  0  0  0  0  0  0  0  0  0  0
  -36.9560  158.5135   -2.8889 H   0  0  0  0  0  0  0  0  0  0  0  0
  -37.4490  160.9525   -2.9181 H   0  0  0  0  0  0  0  0  0  0  0  0
  -38.4361  164.8888   -3.1815 H   0  0  0  0  0  0  0  0  0  0  0  0
  -37.7153  165.2652   -5.5446 H   0  0  0  0  0  0  0  0  0  0  0  0
  -36.4182  163.7766   -8.9675 H   0  0  0  0  0  0  0  0  0  0  0  0
  -38.9514  165.3796   -8.3442 H   0  0  0  0  0  0  0  0  0  0  0  0
  -35.9279  164.7320  -10.5285 H   0  0  0  0  0  0  0  0  0  0  0  0
  -35.0472  166.3872  -12.1931 H   0  0  0  0  0  0  0  0  0  0  0  0
  -36.1227  168.6494  -12.3541 H   0  0  0  0  0  0  0  0  0  0  0  0
  -38.0208  169.1734  -10.8663 H   0  0  0  0  0  0  0  0  0  0  0  0
  -38.7800  160.1760   -6.8450 H   0  0  0  0  0  0  0  0  0  0  0  0
  -39.3826  160.7516   -4.0776 H   0  0  0  0  0  0  0  0  0  0  0  0
  1  2  1  0
  2  3  1  0
  3  4  2  0
  3  5  1  0
  5  6  2  0
  6  7  1  0
  7  8  2  0
  8  9  1  0
  9 10  2  0
 10 11  1  0
 11 12  1  0
 12 13  2  0
 13 14  1  0
 14 15  2  0
 15 16  1  0
 16 17  1  0
 17 18  2  0
 18 19  1  0
 19 20  2  0
 20 21  1  0
 21 22  2  0
 22 23  1  0
 23 24  2  0
 16 25  2  0
 25 26  1  0
 26 27  1  0
 27 28  2  0
 10  5  1  0
 28 12  1  0
 27 15  1  0
 24 19  1  0
  1 29  1  0
  1 30  1  0
  1 31  1  0
  2 32  1  0
  6 33  1  0
  7 34  1  0
  8 35  1  0
  9 36  1  0
 13 37  1  0
 14 38  1  0
 17 39  1  0
 18 40  1  0
 20 41  1  0
 21 42  1  0
 22 43  1  0
 23 44  1  0
 26 45  1  0
 28 46  1  0
M  END
>  <meeko>  (6) 
{"is_sidechain": false}

>  <vina_affinity_kcal_mol>  (6) 
-9.105

>  <pose_rank>  (6) 
6

$$$$

     RDKit          3D

 46 49  0  0  0  0  0  0  0  0999 V2000
  -35.4730  168.0720  -11.0770 C   0  0  0  0  0  0  0  0  0  0  0  0
  -35.9520  166.7830  -10.6480 N   0  0  0  0  0  0  0  0  0  0  0  0
  -37.2500  166.6080  -10.2230 C   0  0  0  0  0  0  0  0  0  0  0  0
  -38.0430  167.5310  -10.0690 O   0  0  0  0  0  0  0  0  0  0  0  0
  -37.6670  165.2170   -9.9030 C   0  0  0  0  0  0  0  0  0  0  0  0
  -37.7760  164.3440  -11.0010 C   0  0  0  0  0  0  0  0  0  0  0  0
  -38.1740  163.0200  -10.8230 C   0  0  0  0  0  0  0  0  0  0  0  0
  -38.4600  162.5510   -9.5450 C   0  0  0  0  0  0  0  0  0  0  0  0
  -38.3370  163.4040   -8.4450 C   0  0  0  0  0  0  0  0  0  0  0  0
  -37.9300  164.7390   -8.6050 C   0  0  0  0  0  0  0  0  0  0  0  0
  -37.7490  165.7120   -7.1090 S   0  0  0  0  0  0  0  0  0  0  0  0
  -38.1800  164.4820   -5.8840 C   0  0  0  0  0  0  0  0  0  0  0  0
  -39.0890  164.7840   -4.8680 C   0  0  0  0  0  0  0  0  0  0  0  0
  -39.4350  163.8290   -3.9000 C   0  0  0  0  0  0  0  0  0  0  0  0
  -38.8550  162.5450   -3.9580 C   0  0  0  0  0  0  0  0  0  0  0  0
  -38.9260  161.3320   -3.2020 C   0  0  0  0  0  0  0  0  0  0  0  0
  -39.6850  161.0880   -2.0110 C   0  0  0  0  0  0  0  0  0  0  0  0
  -39.6870  159.9540   -1.2880 C   0  0  0  0  0  0  0  0  0  0  0  0
  -40.4980  159.7520   -0.0800 C   0  0  0  0  0  0  0  0  0  0  0  0
  -41.7420  160.3680    0.0360 C   0  0  0  0  0  0  0  0  0  0  0  0
  -42.4950  160.1560    1.1880 C   0  0  0  0  0  0  0  0  0  0  0  0
  -41.9900  159.3390    2.1900 C   0  0  0  0  0  0  0  0  0  0  0  0
  -40.7460  158.7630    1.9950 C   0  0  0  0  0  0  0  0  0  0  0  0
  -39.9950  158.9510    0.8880 N   0  0  0  0  0  0  0  0  0  0  0  0
  -38.1840  160.3670   -3.7650 N   0  0  0  0  0  0  0  0  0  0  0  0
  -37.6180  160.9600   -4.8240 N   0  0  0  0  0  0  0  0  0  0  0  0
  -37.9770  162.2660   -5.0000 C   0  0  0  0  0  0  0  0  0  0  0  0
  -37.6150  163.2030   -5.9770 C   0  0  0  0  0  0  0  0  0  0  0  0
  -35.2435  168.6896  -10.1962 H   0  0  0  0  0  0  0  0  0  0  0  0
  -34.5630  167.9425  -11.6812 H   0  0  0  0  0  0  0  0  0  0  0  0
  -36.2468  168.5682  -11.6812 H   0  0  0  0  0  0  0  0  0  0  0  0
  -35.4090  165.9630  -10.8920 H   0  0  0  0  0  0  0  0  0  0  0  0
  -37.5444  164.7106  -12.0119 H   0  0  0  0  0  0  0  0  0  0  0  0
  -38.2616  162.3486  -11.6899 H   0  0  0  0  0  0  0  0  0  0  0  0
  -38.7827  161.5094   -9.4004 H   0  0  0  0  0  0  0  0  0  0  0  0
  -38.5625  163.0240   -7.4376 H   0  0  0  0  0  0  0  0  0  0  0  0
  -39.5408  165.7860   -4.8258 H   0  0  0  0  0  0  0  0  0  0  0  0
  -40.1515  164.0794   -3.1038 H   0  0  0  0  0  0  0  0  0  0  0  0
  -40.3274  161.9065   -1.6541 H   0  0  0  0  0  0  0  0  0  0  0  0
  -39.0422  159.1276   -1.6215 H   0  0  0  0  0  0  0  0  0  0  0  0
  -42.1236  161.0120   -0.7700 H   0  0  0  0  0  0  0  0  0  0  0  0
  -43.4803  160.6313    1.3028 H   0  0  0  0  0  0  0  0  0  0  0  0
  -42.5612  159.1545    3.1118 H   0  0  0  0  0  0  0  0  0  0  0  0
  -40.3458  158.1142    2.7881 H   0  0  0  0  0  0  0  0  0  0  0  0
  -36.9940  160.4080   -5.4020 H   0  0  0  0  0  0  0  0  0  0  0  0
  -36.9149  162.9447   -6.7852 H   0  0  0  0  0  0  0  0  0  0  0  0
  1  2  1  0
  2  3  1  0
  3  4  2  0
  3  5  1  0
  5  6  2  0
  6  7  1  0
  7  8  2  0
  8  9  1  0
  9 10  2  0
 10 11  1  0
 11 12  1  0
 12 13  2  0
 13 14  1  0
 14 15  2  0
 15 16  1  0
 16 17  1  0
 17 18  2  0
 18 19  1  0
 19 20  2  0
 20 21  1  0
 21 22  2  0
 22 23  1  0
 23 24  2  0
 16 25  2  0
 25 26  1  0
 26 27  1  0
 27 28  2  0
 10  5  1  0
 28 12  1  0
 27 15  1  0
 24 19  1  0
  1 29  1  0
  1 30  1  0
  1 31  1  0
  2 32  1  0
  6 33  1  0
  7 34  1  0
  8 35  1  0
  9 36  1  0
 13 37  1  0
 14 38  1  0
 17 39  1  0
 18 40  1  0
 20 41  1  0
 21 42  1  0
 22 43  1  0
 23 44  1  0
 26 45  1  0
 28 46  1  0
M  END
>  <meeko>  (7) 
{"is_sidechain": false}

>  <vina_affinity_kcal_mol>  (7) 
-9.049

>  <pose_rank>  (7) 
7

$$$$

     RDKit          3D

 46 49  0  0  0  0  0  0  0  0999 V2000
  -35.9360  152.9380    6.9820 C   0  0  0  0  0  0  0  0  0  0  0  0
  -35.9380  154.3130    6.5560 N   0  0  0  0  0  0  0  0  0  0  0  0
  -37.0690  155.0910    6.6550 C   0  0  0  0  0  0  0  0  0  0  0  0
  -38.1640  154.6540    6.9940 O   0  0  0  0  0  0  0  0  0  0  0  0
  -36.9300  156.5250    6.2830 C   0  0  0  0  0  0  0  0  0  0  0  0
  -36.3660  157.3580    7.2660 C   0  0  0  0  0  0  0  0  0  0  0  0
  -36.2010  158.7220    7.0340 C   0  0  0  0  0  0  0  0  0  0  0  0
  -36.5910  159.2690    5.8160 C   0  0  0  0  0  0  0  0  0  0  0  0
  -37.1340  158.4470    4.8260 C   0  0  0  0  0  0  0  0  0  0  0  0
  -37.3010  157.0680    5.0390 C   0  0  0  0  0  0  0  0  0  0  0  0
  -37.9510  156.1130    3.6660 S   0  0  0  0  0  0  0  0  0  0  0  0
  -38.4420  157.4380    2.5700 C   0  0  0  0  0  0  0  0  0  0  0  0
  -37.5330  157.9690    1.6510 C   0  0  0  0  0  0  0  0  0  0  0  0
  -37.9050  159.0090    0.7870 C   0  0  0  0  0  0  0  0  0  0  0  0
  -39.2160  159.5250    0.8480 C   0  0  0  0  0  0  0  0  0  0  0  0
  -39.9710  160.5400    0.1800 C   0  0  0  0  0  0  0  0  0  0  0  0
  -39.5170  161.4370   -0.8410 C   0  0  0  0  0  0  0  0  0  0  0  0
  -39.6420  161.2600   -2.1680 C   0  0  0  0  0  0  0  0  0  0  0  0
  -39.1430  162.2080   -3.1740 C   0  0  0  0  0  0  0  0  0  0  0  0
  -38.7810  161.7540   -4.4400 C   0  0  0  0  0  0  0  0  0  0  0  0
  -38.3170  162.6740   -5.3780 C   0  0  0  0  0  0  0  0  0  0  0  0
  -38.2280  164.0150   -5.0300 C   0  0  0  0  0  0  0  0  0  0  0  0
  -38.6110  164.3820   -3.7510 C   0  0  0  0  0  0  0  0  0  0  0  0
  -39.0640  163.5130   -2.8230 N   0  0  0  0  0  0  0  0  0  0  0  0
  -41.2420  160.5590    0.6090 N   0  0  0  0  0  0  0  0  0  0  0  0
  -41.2850  159.6140    1.5580 N   0  0  0  0  0  0  0  0  0  0  0  0
  -40.1050  158.9540    1.7530 C   0  0  0  0  0  0  0  0  0  0  0  0
  -39.7580  157.9160    2.6270 C   0  0  0  0  0  0  0  0  0  0  0  0
  -35.9359  152.8947    8.0811 H   0  0  0  0  0  0  0  0  0  0  0  0
  -36.8334  152.4330    6.5952 H   0  0  0  0  0  0  0  0  0  0  0  0
  -35.0371  152.4356    6.5952 H   0  0  0  0  0  0  0  0  0  0  0  0
  -35.0450  154.7740    6.4150 H   0  0  0  0  0  0  0  0  0  0  0  0
  -36.0517  156.9280    8.2285 H   0  0  0  0  0  0  0  0  0  0  0  0
  -35.7634  159.3646    7.8121 H   0  0  0  0  0  0  0  0  0  0  0  0
  -36.4720  160.3471    5.6328 H   0  0  0  0  0  0  0  0  0  0  0  0
  -37.4359  158.8862    3.8637 H   0  0  0  0  0  0  0  0  0  0  0  0
  -36.5108  157.5653    1.6047 H   0  0  0  0  0  0  0  0  0  0  0  0
  -37.1804  159.4188    0.0679 H   0  0  0  0  0  0  0  0  0  0  0  0
  -39.0184  162.3589   -0.5071 H   0  0  0  0  0  0  0  0  0  0  0  0
  -40.1486  160.3501   -2.5222 H   0  0  0  0  0  0  0  0  0  0  0  0
  -38.8601  160.6869   -4.6951 H   0  0  0  0  0  0  0  0  0  0  0  0
  -38.0240  162.3409   -6.3846 H   0  0  0  0  0  0  0  0  0  0  0  0
  -37.8640  164.7637   -5.7490 H   0  0  0  0  0  0  0  0  0  0  0  0
  -38.5420  165.4446   -3.4750 H   0  0  0  0  0  0  0  0  0  0  0  0
  -42.1650  159.4600    2.0360 H   0  0  0  0  0  0  0  0  0  0  0  0
  -40.4899  157.4926    3.3306 H   0  0  0  0  0  0  0  0  0  0  0  0
  1  2  1  0
  2  3  1  0
  3  4  2  0
  3  5  1  0
  5  6  2  0
  6  7  1  0
  7  8  2  0
  8  9  1  0
  9 10  2  0
 10 11  1  0
 11 12  1  0
 12 13  2  0
 13 14  1  0
 14 15  2  0
 15 16  1  0
 16 17  1  0
 17 18  2  0
 18 19  1  0
 19 20  2  0
 20 21  1  0
 21 22  2  0
 22 23  1  0
 23 24  2  0
 16 25  2  0
 25 26  1  0
 26 27  1  0
 27 28  2  0
 10  5  1  0
 28 12  1  0
 27 15  1  0
 24 19  1  0
  1 29  1  0
  1 30  1  0
  1 31  1  0
  2 32  1  0
  6 33  1  0
  7 34  1  0
  8 35  1  0
  9 36  1  0
 13 37  1  0
 14 38  1  0
 17 39  1  0
 18 40  1  0
 20 41  1  0
 21 42  1  0
 22 43  1  0
 23 44  1  0
 26 45  1  0
 28 46  1  0
M  END
>  <meeko>  (8) 
{"is_sidechain": false}

>  <vina_affinity_kcal_mol>  (8) 
-8.991

>  <pose_rank>  (8) 
8

$$$$

     RDKit          3D

 46 49  0  0  0  0  0  0  0  0999 V2000
  -34.4610  148.6550    2.3150 C   0  0  0  0  0  0  0  0  0  0  0  0
  -35.6400  149.0900    3.0170 N   0  0  0  0  0  0  0  0  0  0  0  0
  -35.7000  149.0740    4.3930 C   0  0  0  0  0  0  0  0  0  0  0  0
  -34.8240  148.5930    5.1030 O   0  0  0  0  0  0  0  0  0  0  0  0
  -36.9250  149.6440    5.0160 C   0  0  0  0  0  0  0  0  0  0  0  0
  -38.1050  148.9020    4.8310 C   0  0  0  0  0  0  0  0  0  0  0  0
  -39.3160  149.3470    5.3580 C   0  0  0  0  0  0  0  0  0  0  0  0
  -39.3610  150.5330    6.0820 C   0  0  0  0  0  0  0  0  0  0  0  0
  -38.1910  151.2680    6.2890 C   0  0  0  0  0  0  0  0  0  0  0  0
  -36.9590  150.8310    5.7720 C   0  0  0  0  0  0  0  0  0  0  0  0
  -35.5210  151.8300    6.1610 S   0  0  0  0  0  0  0  0  0  0  0  0
  -36.0520  153.4080    5.5070 C   0  0  0  0  0  0  0  0  0  0  0  0
  -37.3380  153.5590    4.9840 C   0  0  0  0  0  0  0  0  0  0  0  0
  -37.7670  154.7910    4.4660 C   0  0  0  0  0  0  0  0  0  0  0  0
  -36.8840  155.8900    4.4760 C   0  0  0  0  0  0  0  0  0  0  0  0
  -36.9170  157.2600    4.0630 C   0  0  0  0  0  0  0  0  0  0  0  0
  -37.9920  157.9520    3.4150 C   0  0  0  0  0  0  0  0  0  0  0  0
  -38.2230  158.0010    2.0910 C   0  0  0  0  0  0  0  0  0  0  0  0
  -39.3350  158.7390    1.4780 C   0  0  0  0  0  0  0  0  0  0  0  0
  -40.5960  158.7150    2.0680 C   0  0  0  0  0  0  0  0  0  0  0  0
  -41.6330  159.4280    1.4710 C   0  0  0  0  0  0  0  0  0  0  0  0
  -41.3860  160.1440    0.3080 C   0  0  0  0  0  0  0  0  0  0  0  0
  -40.1030  160.1170   -0.2120 C   0  0  0  0  0  0  0  0  0  0  0  0
  -39.0790  159.4350    0.3460 N   0  0  0  0  0  0  0  0  0  0  0  0
  -35.7770  157.8890    4.3830 N   0  0  0  0  0  0  0  0  0  0  0  0
  -35.0190  156.9380    4.9440 N   0  0  0  0  0  0  0  0  0  0  0  0
  -35.6210  155.7140    5.0320 C   0  0  0  0  0  0  0  0  0  0  0  0
  -35.1690  154.4960    5.5530 C   0  0  0  0  0  0  0  0  0  0  0  0
  -33.6862  148.3691    3.0416 H   0  0  0  0  0  0  0  0  0  0  0  0
  -34.7088  147.7891    1.6835 H   0  0  0  0  0  0  0  0  0  0  0  0
  -34.0870  149.4744    1.6835 H   0  0  0  0  0  0  0  0  0  0  0  0
  -36.3280  149.6350    2.5100 H   0  0  0  0  0  0  0  0  0  0  0  0
  -38.0719  147.9599    4.2641 H   0  0  0  0  0  0  0  0  0  0  0  0
  -40.2339  148.7613    5.2015 H   0  0  0  0  0  0  0  0  0  0  0  0
  -40.3167  150.8923    6.4914 H   0  0  0  0  0  0  0  0  0  0  0  0
  -38.2346  152.2036    6.8658 H   0  0  0  0  0  0  0  0  0  0  0  0
  -38.0249  152.6998    4.9779 H   0  0  0  0  0  0  0  0  0  0  0  0
  -38.7822  154.8980    4.0563 H   0  0  0  0  0  0  0  0  0  0  0  0
  -38.6957  158.4952    4.0629 H   0  0  0  0  0  0  0  0  0  0  0  0
  -37.5371  157.4550    1.4266 H   0  0  0  0  0  0  0  0  0  0  0  0
  -40.7704  158.1422    2.9907 H   0  0  0  0  0  0  0  0  0  0  0  0
  -42.6384  159.4236    1.9172 H   0  0  0  0  0  0  0  0  0  0  0  0
  -42.1855  160.7158   -0.1858 H   0  0  0  0  0  0  0  0  0  0  0  0
  -39.9059  160.6842   -1.1336 H   0  0  0  0  0  0  0  0  0  0  0  0
  -34.0900  157.1930    5.2580 H   0  0  0  0  0  0  0  0  0  0  0  0
  -34.1608  154.3964    5.9816 H   0  0  0  0  0  0  0  0  0  0  0  0
  1  2  1  0
  2  3  1  0
  3  4  2  0
  3  5  1  0
  5  6  2  0
  6  7  1  0
  7  8  2  0
  8  9  1  0
  9 10  2  0
 10 11  1  0
 11 12  1  0
 12 13  2  0
 13 14  1  0
 14 15  2  0
 15 16  1  0
 16 17  1  0
 17 18  2  0
 18 19  1  0
 19 20  2  0
 20 21  1  0
 21 22  2  0
 22 23  1  0
 23 24  2  0
 16 25  2  0
 25 26  1  0
 26 27  1  0
 27 28  2  0
 10  5  1  0
 28 12  1  0
 27 15  1  0
 24 19  1  0
  1 29  1  0
  1 30  1  0
  1 31  1  0
  2 32  1  0
  6 33  1  0
  7 34  1  0
  8 35  1  0
  9 36  1  0
 13 37  1  0
 14 38  1  0
 17 39  1  0
 18 40  1  0
 20 41  1  0
 21 42  1  0
 22 43  1  0
 23 44  1  0
 26 45  1  0
 28 46  1  0
M  END
>  <meeko>  (9) 
{"is_sidechain": false}

>  <vina_affinity_kcal_mol>  (9) 
-8.797

>  <pose_rank>  (9) 
9

$$$$

     RDKit          3D

 46 49  0  0  0  0  0  0  0  0999 V2000
  -33.3510  147.9650    9.4830 C   0  0  0  0  0  0  0  0  0  0  0  0
  -34.1030  148.3570    8.3200 N   0  0  0  0  0  0  0  0  0  0  0  0
  -35.3590  148.9110    8.4340 C   0  0  0  0  0  0  0  0  0  0  0  0
  -35.9650  149.0030    9.4960 O   0  0  0  0  0  0  0  0  0  0  0  0
  -36.0020  149.3760    7.1750 C   0  0  0  0  0  0  0  0  0  0  0  0
  -36.5420  148.3670    6.3570 C   0  0  0  0  0  0  0  0  0  0  0  0
  -37.1560  148.6840    5.1470 C   0  0  0  0  0  0  0  0  0  0  0  0
  -37.2440  150.0120    4.7430 C   0  0  0  0  0  0  0  0  0  0  0  0
  -36.7280  151.0240    5.5570 C   0  0  0  0  0  0  0  0  0  0  0  0
  -36.1120  150.7240    6.7840 C   0  0  0  0  0  0  0  0  0  0  0  0
  -35.5470  152.1160    7.7650 S   0  0  0  0  0  0  0  0  0  0  0  0
  -36.0750  153.4670    6.7180 C   0  0  0  0  0  0  0  0  0  0  0  0
  -37.4340  153.7170    6.5170 C   0  0  0  0  0  0  0  0  0  0  0  0
  -37.8610  154.7720    5.6980 C   0  0  0  0  0  0  0  0  0  0  0  0
  -36.9010  155.5930    5.0700 C   0  0  0  0  0  0  0  0  0  0  0  0
  -36.9070  156.7230    4.1920 C   0  0  0  0  0  0  0  0  0  0  0  0
  -38.0450  157.3810    3.6230 C   0  0  0  0  0  0  0  0  0  0  0  0
  -38.1270  157.8990    2.3850 C   0  0  0  0  0  0  0  0  0  0  0  0
  -39.3180  158.5790    1.8560 C   0  0  0  0  0  0  0  0  0  0  0  0
  -40.5550  158.3940    2.4680 C   0  0  0  0  0  0  0  0  0  0  0  0
  -41.6680  159.0540    1.9520 C   0  0  0  0  0  0  0  0  0  0  0  0
  -41.5170  159.8780    0.8440 C   0  0  0  0  0  0  0  0  0  0  0  0
  -40.2520  160.0080    0.2980 C   0  0  0  0  0  0  0  0  0  0  0  0
  -39.1570  159.3810    0.7780 N   0  0  0  0  0  0  0  0  0  0  0  0
  -35.6600  157.1560    3.9540 N   0  0  0  0  0  0  0  0  0  0  0  0
  -34.8780  156.2990    4.6230 N   0  0  0  0  0  0  0  0  0  0  0  0
  -35.5560  155.3360    5.3150 C   0  0  0  0  0  0  0  0  0  0  0  0
  -35.1050  154.2880    6.1270 C   0  0  0  0  0  0  0  0  0  0  0  0
  -33.9025  148.2525   10.3903 H   0  0  0  0  0  0  0  0  0  0  0  0
  -33.2031  146.8750    9.4738 H   0  0  0  0  0  0  0  0  0  0  0  0
  -32.3727  148.4679    9.4738 H   0  0  0  0  0  0  0  0  0  0  0  0
  -33.6110  148.4530    7.4390 H   0  0  0  0  0  0  0  0  0  0  0  0
  -36.4789  147.3162    6.6761 H   0  0  0  0  0  0  0  0  0  0  0  0
  -37.5700  147.8861    4.5130 H   0  0  0  0  0  0  0  0  0  0  0  0
  -37.7192  150.2654    3.7839 H   0  0  0  0  0  0  0  0  0  0  0  0
  -36.8052  152.0721    5.2321 H   0  0  0  0  0  0  0  0  0  0  0  0
  -38.1810  153.0765    7.0087 H   0  0  0  0  0  0  0  0  0  0  0  0
  -38.9346  154.9577    5.5466 H   0  0  0  0  0  0  0  0  0  0  0  0
  -38.9373  157.4711    4.2599 H   0  0  0  0  0  0  0  0  0  0  0  0
  -37.2494  157.8084    1.7280 H   0  0  0  0  0  0  0  0  0  0  0  0
  -40.6518  157.7371    3.3450 H   0  0  0  0  0  0  0  0  0  0  0  0
  -42.6563  158.9240    2.4172 H   0  0  0  0  0  0  0  0  0  0  0  0
  -42.3773  160.4113    0.4134 H   0  0  0  0  0  0  0  0  0  0  0  0
  -40.1316  160.6609   -0.5791 H   0  0  0  0  0  0  0  0  0  0  0  0
  -33.8740  156.4330    4.5740 H   0  0  0  0  0  0  0  0  0  0  0  0
  -34.0315  154.1159    6.2944 H   0  0  0  0  0  0  0  0  0  0  0  0
  1  2  1  0
  2  3  1  0
  3  4  2  0
  3  5  1  0
  5  6  2  0
  6  7  1  0
  7  8  2  0
  8  9  1  0
  9 10  2  0
 10 11  1  0
 11 12  1  0
 12 13  2  0
 13 14  1  0
 14 15  2  0
 15 16  1  0
 16 17  1  0
 17 18  2  0
 18 19  1  0
 19 20  2  0
 20 21  1  0
 21 22  2  0
 22 23  1  0
 23 24  2  0
 16 25  2  0
 25 26  1  0
 26 27  1  0
 27 28  2  0
 10  5  1  0
 28 12  1  0
 27 15  1  0
 24 19  1  0
  1 29  1  0
  1 30  1  0
  1 31  1  0
  2 32  1  0
  6 33  1  0
  7 34  1  0
  8 35  1  0
  9 36  1  0
 13 37  1  0
 14 38  1  0
 17 39  1  0
 18 40  1  0
 20 41  1  0
 21 42  1  0
 22 43  1  0
 23 44  1  0
 26 45  1  0
 28 46  1  0
M  END
>  <meeko>  (10) 
{"is_sidechain": false}

>  <vina_affinity_kcal_mol>  (10) 
-8.684

>  <pose_rank>  (10) 
10

$$$$
