
     RDKit          3D

 62 67  0  0  0  0  0  0  0  0999 V2000
  -13.5750   -2.2440   -9.8220 C   0  0  0  0  0  0  0  0  0  0  0  0
  -12.0790   -2.0410  -10.0190 C   0  0  0  0  0  0  0  0  0  0  0  0
  -11.6270   -0.5940   -9.8150 C   0  0  0  0  0  0  0  0  0  0  0  0
  -12.6650    0.2710  -10.2800 O   0  0  0  0  0  0  0  0  0  0  0  0
  -12.3740    1.0960  -11.3310 C   0  0  0  0  0  0  0  0  0  0  0  0
  -11.1810    1.1150  -12.0510 C   0  0  0  0  0  0  0  0  0  0  0  0
  -10.9830    2.0060  -13.1190 C   0  0  0  0  0  0  0  0  0  0  0  0
  -12.0160    2.9020  -13.4400 C   0  0  0  0  0  0  0  0  0  0  0  0
  -13.2350    2.8590  -12.7550 C   0  0  0  0  0  0  0  0  0  0  0  0
  -13.4100    1.9640  -11.6880 C   0  0  0  0  0  0  0  0  0  0  0  0
  -14.1410    3.7380  -13.2780 N   0  0  0  0  0  0  0  0  0  0  0  0
  -13.5080    4.3170  -14.2710 C   0  0  0  0  0  0  0  0  0  0  0  0
  -12.1950    3.9050  -14.3900 N   0  0  0  0  0  0  0  0  0  0  0  0
  -11.2960    4.4700  -15.3410 C   0  0  0  0  0  0  0  0  0  0  0  0
  -11.5370    5.6920  -15.9410 C   0  0  0  0  0  0  0  0  0  0  0  0
  -10.6080    6.1670  -16.8630 C   0  0  0  0  0  0  0  0  0  0  0  0
   -9.4680    5.4170  -17.1760 C   0  0  0  0  0  0  0  0  0  0  0  0
   -8.5410    5.8940  -18.1120 C   0  0  0  0  0  0  0  0  0  0  0  0
   -7.4220    5.1380  -18.4360 C   0  0  0  0  0  0  0  0  0  0  0  0
   -7.2240    3.9040  -17.8240 C   0  0  0  0  0  0  0  0  0  0  0  0
   -8.1340    3.3990  -16.8730 C   0  0  0  0  0  0  0  0  0  0  0  0
   -7.9190    2.1380  -16.2570 N   0  0  0  0  0  0  0  0  0  0  0  0
   -6.5100    1.9050  -15.8950 C   0  0  0  0  0  0  0  0  0  0  0  0
   -6.4280    0.7790  -14.8650 C   0  0  0  0  0  0  0  0  0  0  0  0
   -7.1510   -0.4960  -15.3170 C   0  0  0  0  0  0  0  0  0  0  0  0
   -6.4020   -1.2160  -16.3560 N   0  0  0  0  0  0  0  0  0  0  0  0
   -8.5720   -0.1700  -15.7870 C   0  0  0  0  0  0  0  0  0  0  0  0
   -8.6040    0.9640  -16.8110 C   0  0  0  0  0  0  0  0  0  0  0  0
   -9.2840    4.1700  -16.5430 C   0  0  0  0  0  0  0  0  0  0  0  0
  -10.2050    3.7240  -15.6520 N   0  0  0  0  0  0  0  0  0  0  0  0
  -11.2010   -3.0520   -9.2600 C   0  0  0  0  0  0  0  0  0  0  0  0
  -10.4730   -3.3770  -10.4690 O   0  0  0  0  0  0  0  0  0  0  0  0
  -11.4800   -2.7040  -11.2720 C   0  0  0  0  0  0  0  0  0  0  0  0
  -13.8023   -2.2748   -8.7462 H   0  0  0  0  0  0  0  0  0  0  0  0
  -14.1225   -1.4119  -10.2887 H   0  0  0  0  0  0  0  0  0  0  0  0
  -13.8810   -3.1919  -10.2887 H   0  0  0  0  0  0  0  0  0  0  0  0
  -11.4403   -0.4099   -8.7467 H   0  0  0  0  0  0  0  0  0  0  0  0
  -10.6983   -0.4052  -10.3734 H   0  0  0  0  0  0  0  0  0  0  0  0
  -10.3764    0.4168  -11.7770 H   0  0  0  0  0  0  0  0  0  0  0  0
  -10.0425    2.0020  -13.6896 H   0  0  0  0  0  0  0  0  0  0  0  0
  -14.3601    1.9457  -11.1340 H   0  0  0  0  0  0  0  0  0  0  0  0
  -13.9751    5.0548  -14.9400 H   0  0  0  0  0  0  0  0  0  0  0  0
  -12.4383    6.2733  -15.6966 H   0  0  0  0  0  0  0  0  0  0  0  0
  -10.7712    7.1399  -17.3497 H   0  0  0  0  0  0  0  0  0  0  0  0
   -8.7001    6.8709  -18.5920 H   0  0  0  0  0  0  0  0  0  0  0  0
   -6.6960    5.5127  -19.1726 H   0  0  0  0  0  0  0  0  0  0  0  0
   -6.3373    3.3091  -18.0883 H   0  0  0  0  0  0  0  0  0  0  0  0
   -5.9426    1.6218  -16.7938 H   0  0  0  0  0  0  0  0  0  0  0  0
   -6.0845    2.8248  -15.4673 H   0  0  0  0  0  0  0  0  0  0  0  0
   -5.3687    0.5390  -14.6907 H   0  0  0  0  0  0  0  0  0  0  0  0
   -6.9233    1.1326  -13.9487 H   0  0  0  0  0  0  0  0  0  0  0  0
   -7.2157   -1.1661  -14.4471 H   0  0  0  0  0  0  0  0  0  0  0  0
   -5.4990   -0.7630  -16.4950 H   0  0  0  0  0  0  0  0  0  0  0  0
   -6.8850   -1.1590  -17.2500 H   0  0  0  0  0  0  0  0  0  0  0  0
   -9.0076   -1.0706  -16.2443 H   0  0  0  0  0  0  0  0  0  0  0  0
   -9.1479    0.1565  -14.9086 H   0  0  0  0  0  0  0  0  0  0  0  0
   -8.0951    0.6422  -17.7316 H   0  0  0  0  0  0  0  0  0  0  0  0
   -9.6480    1.2219  -17.0424 H   0  0  0  0  0  0  0  0  0  0  0  0
  -10.5782   -2.5979   -8.4752 H   0  0  0  0  0  0  0  0  0  0  0  0
  -11.6746   -3.8550   -8.6762 H   0  0  0  0  0  0  0  0  0  0  0  0
  -11.0652   -1.9893  -11.9980 H   0  0  0  0  0  0  0  0  0  0  0  0
  -12.1260   -3.2898  -11.9425 H   0  0  0  0  0  0  0  0  0  0  0  0
  1  2  1  0
  2  3  1  0
  3  4  1  0
  4  5  1  0
  5  6  2  0
  6  7  1  0
  7  8  2  0
  8  9  1  0
  9 10  2  0
  9 11  1  0
 11 12  2  0
 12 13  1  0
 13 14  1  0
 14 15  1  0
 15 16  2  0
 16 17  1  0
 17 18  2  0
 18 19  1  0
 19 20  2  0
 20 21  1  0
 21 22  1  0
 22 23  1  0
 23 24  1  0
 24 25  1  0
 25 26  1  0
 25 27  1  0
 27 28  1  0
 21 29  2  0
 29 30  1  0
  2 31  1  0
 31 32  1  0
 32 33  1  0
 33  2  1  0
 10  5  1  0
 30 14  2  0
 13  8  1  0
 29 17  1  0
 28 22  1  0
  1 34  1  0
  1 35  1  0
  1 36  1  0
  3 37  1  0
  3 38  1  0
  6 39  1  0
  7 40  1  0
 10 41  1  0
 12 42  1  0
 15 43  1  0
 16 44  1  0
 18 45  1  0
 19 46  1  0
 20 47  1  0
 23 48  1  0
 23 49  1  0
 24 50  1  0
 24 51  1  0
 25 52  1  0
 26 53  1  0
 26 54  1  0
 27 55  1  0
 27 56  1  0
 28 57  1  0
 28 58  1  0
 31 59  1  0
 31 60  1  0
 33 61  1  0
 33 62  1  0
M  END
>  <meeko>  (1) 
{"is_sidechain": false}

>  <vina_affinity_kcal_mol>  (1) 
-10.346

>  <pose_rank>  (1) 
1

$$$$

     RDKit          3D

 62 67  0  0  0  0  0  0  0  0999 V2000
  -14.1880   -1.8550   -8.4050 C   0  0  0  0  0  0  0  0  0  0  0  0
  -14.1420   -0.3350   -8.4510 C   0  0  0  0  0  0  0  0  0  0  0  0
  -14.0740    0.2320   -9.8690 C   0  0  0  0  0  0  0  0  0  0  0  0
  -12.7010    0.3090  -10.2570 O   0  0  0  0  0  0  0  0  0  0  0  0
  -12.3880    1.1240  -11.3110 C   0  0  0  0  0  0  0  0  0  0  0  0
  -11.1860    1.1260  -12.0150 C   0  0  0  0  0  0  0  0  0  0  0  0
  -10.9650    2.0070  -13.0870 C   0  0  0  0  0  0  0  0  0  0  0  0
  -11.9850    2.9110  -13.4280 C   0  0  0  0  0  0  0  0  0  0  0  0
  -13.2140    2.8850  -12.7580 C   0  0  0  0  0  0  0  0  0  0  0  0
  -13.4110    1.9990  -11.6880 C   0  0  0  0  0  0  0  0  0  0  0  0
  -14.1040    3.7680  -13.3000 N   0  0  0  0  0  0  0  0  0  0  0  0
  -13.4530    4.3330  -14.2890 C   0  0  0  0  0  0  0  0  0  0  0  0
  -12.1420    3.9080  -14.3880 N   0  0  0  0  0  0  0  0  0  0  0  0
  -11.2260    4.4580  -15.3310 C   0  0  0  0  0  0  0  0  0  0  0  0
  -11.4450    5.6790  -15.9410 C   0  0  0  0  0  0  0  0  0  0  0  0
  -10.5000    6.1380  -16.8540 C   0  0  0  0  0  0  0  0  0  0  0  0
   -9.3660    5.3730  -17.1500 C   0  0  0  0  0  0  0  0  0  0  0  0
   -8.4220    5.8340  -18.0770 C   0  0  0  0  0  0  0  0  0  0  0  0
   -7.3080    5.0640  -18.3830 C   0  0  0  0  0  0  0  0  0  0  0  0
   -7.1320    3.8310  -17.7630 C   0  0  0  0  0  0  0  0  0  0  0  0
   -8.0590    3.3420  -16.8200 C   0  0  0  0  0  0  0  0  0  0  0  0
   -7.8660    2.0810  -16.1940 N   0  0  0  0  0  0  0  0  0  0  0  0
   -6.4450    1.7420  -16.0070 C   0  0  0  0  0  0  0  0  0  0  0  0
   -6.3190    0.6370  -14.9580 C   0  0  0  0  0  0  0  0  0  0  0  0
   -7.1920   -0.5840  -15.2720 C   0  0  0  0  0  0  0  0  0  0  0  0
   -6.6420   -1.3870  -16.3740 N   0  0  0  0  0  0  0  0  0  0  0  0
   -8.6320   -0.1540  -15.5700 C   0  0  0  0  0  0  0  0  0  0  0  0
   -8.7070    0.9560  -16.6180 C   0  0  0  0  0  0  0  0  0  0  0  0
   -9.2040    4.1270  -16.5070 C   0  0  0  0  0  0  0  0  0  0  0  0
  -10.1400    3.6970  -15.6250 N   0  0  0  0  0  0  0  0  0  0  0  0
  -15.2110    0.3550   -7.5840 C   0  0  0  0  0  0  0  0  0  0  0  0
  -14.2070    1.1720   -6.9360 O   0  0  0  0  0  0  0  0  0  0  0  0
  -13.1540    0.3280   -7.4730 C   0  0  0  0  0  0  0  0  0  0  0  0
  -14.1981   -2.1900   -7.3573 H   0  0  0  0  0  0  0  0  0  0  0  0
  -15.0973   -2.2098   -8.9122 H   0  0  0  0  0  0  0  0  0  0  0  0
  -13.3018   -2.2642   -8.9122 H   0  0  0  0  0  0  0  0  0  0  0  0
  -14.6191   -0.4280  -10.5598 H   0  0  0  0  0  0  0  0  0  0  0  0
  -14.5327    1.2313   -9.8995 H   0  0  0  0  0  0  0  0  0  0  0  0
  -10.3920    0.4220  -11.7252 H   0  0  0  0  0  0  0  0  0  0  0  0
  -10.0173    1.9894  -13.6452 H   0  0  0  0  0  0  0  0  0  0  0  0
  -14.3686    1.9929  -11.1468 H   0  0  0  0  0  0  0  0  0  0  0  0
  -13.9046    5.0697  -14.9697 H   0  0  0  0  0  0  0  0  0  0  0  0
  -12.3424    6.2721  -15.7109 H   0  0  0  0  0  0  0  0  0  0  0  0
  -10.6457    7.1104  -17.3472 H   0  0  0  0  0  0  0  0  0  0  0  0
   -8.5640    6.8099  -18.5643 H   0  0  0  0  0  0  0  0  0  0  0  0
   -6.5684    5.4269  -19.1119 H   0  0  0  0  0  0  0  0  0  0  0  0
   -6.2497    3.2240  -18.0142 H   0  0  0  0  0  0  0  0  0  0  0  0
   -6.0228    1.3923  -16.9606 H   0  0  0  0  0  0  0  0  0  0  0  0
   -5.8966    2.6335  -15.6685 H   0  0  0  0  0  0  0  0  0  0  0  0
   -5.2682    0.3149  -14.9115 H   0  0  0  0  0  0  0  0  0  0  0  0
   -6.6622    1.0511  -13.9985 H   0  0  0  0  0  0  0  0  0  0  0  0
   -7.1962   -1.2255  -14.3784 H   0  0  0  0  0  0  0  0  0  0  0  0
   -6.6590   -0.8360  -17.2320 H   0  0  0  0  0  0  0  0  0  0  0  0
   -7.2270   -2.2010  -16.5510 H   0  0  0  0  0  0  0  0  0  0  0  0
   -9.1912   -1.0262  -15.9395 H   0  0  0  0  0  0  0  0  0  0  0  0
   -9.0634    0.2378  -14.6371 H   0  0  0  0  0  0  0  0  0  0  0  0
   -8.3485    0.5732  -17.5849 H   0  0  0  0  0  0  0  0  0  0  0  0
   -9.7486    1.2937  -16.7231 H   0  0  0  0  0  0  0  0  0  0  0  0
  -15.9470    0.9323   -8.1628 H   0  0  0  0  0  0  0  0  0  0  0  0
  -15.8942   -0.2543   -6.9741 H   0  0  0  0  0  0  0  0  0  0  0  0
  -12.3457    0.8863   -7.9679 H   0  0  0  0  0  0  0  0  0  0  0  0
  -12.5546   -0.2966   -6.7943 H   0  0  0  0  0  0  0  0  0  0  0  0
  1  2  1  0
  2  3  1  0
  3  4  1  0
  4  5  1  0
  5  6  2  0
  6  7  1  0
  7  8  2  0
  8  9  1  0
  9 10  2  0
  9 11  1  0
 11 12  2  0
 12 13  1  0
 13 14  1  0
 14 15  1  0
 15 16  2  0
 16 17  1  0
 17 18  2  0
 18 19  1  0
 19 20  2  0
 20 21  1  0
 21 22  1  0
 22 23  1  0
 23 24  1  0
 24 25  1  0
 25 26  1  0
 25 27  1  0
 27 28  1  0
 21 29  2  0
 29 30  1  0
  2 31  1  0
 31 32  1  0
 32 33  1  0
 33  2  1  0
 10  5  1  0
 30 14  2  0
 13  8  1  0
 29 17  1  0
 28 22  1  0
  1 34  1  0
  1 35  1  0
  1 36  1  0
  3 37  1  0
  3 38  1  0
  6 39  1  0
  7 40  1  0
 10 41  1  0
 12 42  1  0
 15 43  1  0
 16 44  1  0
 18 45  1  0
 19 46  1  0
 20 47  1  0
 23 48  1  0
 23 49  1  0
 24 50  1  0
 24 51  1  0
 25 52  1  0
 26 53  1  0
 26 54  1  0
 27 55  1  0
 27 56  1  0
 28 57  1  0
 28 58  1  0
 31 59  1  0
 31 60  1  0
 33 61  1  0
 33 62  1  0
M  END
>  <meeko>  (2) 
{"is_sidechain": false}

>  <vina_affinity_kcal_mol>  (2) 
-10.273

>  <pose_rank>  (2) 
2

$$$$

     RDKit          3D

 62 67  0  0  0  0  0  0  0  0999 V2000
  -15.2610   -1.8640   -8.0680 C   0  0  0  0  0  0  0  0  0  0  0  0
  -14.6350   -0.5060   -8.3500 C   0  0  0  0  0  0  0  0  0  0  0  0
  -14.1190   -0.3560   -9.7820 C   0  0  0  0  0  0  0  0  0  0  0  0
  -14.5350    0.9170  -10.2790 O   0  0  0  0  0  0  0  0  0  0  0  0
  -13.7320    1.5260  -11.2040 C   0  0  0  0  0  0  0  0  0  0  0  0
  -14.0710    2.6320  -11.9810 C   0  0  0  0  0  0  0  0  0  0  0  0
  -13.1690    3.1840  -12.9050 C   0  0  0  0  0  0  0  0  0  0  0  0
  -11.9080    2.5800  -13.0480 C   0  0  0  0  0  0  0  0  0  0  0  0
  -11.5400    1.4990  -12.2390 C   0  0  0  0  0  0  0  0  0  0  0  0
  -12.4590    0.9610  -11.3250 C   0  0  0  0  0  0  0  0  0  0  0  0
  -10.2460    1.1200  -12.4590 N   0  0  0  0  0  0  0  0  0  0  0  0
   -9.8100    1.9440  -13.3810 C   0  0  0  0  0  0  0  0  0  0  0  0
  -10.7810    2.8180  -13.8310 N   0  0  0  0  0  0  0  0  0  0  0  0
  -10.5530    3.7390  -14.8950 C   0  0  0  0  0  0  0  0  0  0  0  0
  -11.4380    4.7620  -15.1810 C   0  0  0  0  0  0  0  0  0  0  0  0
  -11.1390    5.6130  -16.2410 C   0  0  0  0  0  0  0  0  0  0  0  0
   -9.9780    5.4240  -17.0000 C   0  0  0  0  0  0  0  0  0  0  0  0
   -9.6870    6.2770  -18.0730 C   0  0  0  0  0  0  0  0  0  0  0  0
   -8.5440    6.0750  -18.8360 C   0  0  0  0  0  0  0  0  0  0  0  0
   -7.6880    5.0220  -18.5300 C   0  0  0  0  0  0  0  0  0  0  0  0
   -7.9490    4.1520  -17.4520 C   0  0  0  0  0  0  0  0  0  0  0  0
   -7.0660    3.0810  -17.1500 N   0  0  0  0  0  0  0  0  0  0  0  0
   -5.7920    3.5320  -16.5640 C   0  0  0  0  0  0  0  0  0  0  0  0
   -5.1070    2.3570  -15.8660 C   0  0  0  0  0  0  0  0  0  0  0  0
   -4.9500    1.1330  -16.7760 C   0  0  0  0  0  0  0  0  0  0  0  0
   -3.8910    1.3230  -17.7780 N   0  0  0  0  0  0  0  0  0  0  0  0
   -6.2840    0.7840  -17.4440 C   0  0  0  0  0  0  0  0  0  0  0  0
   -6.9330    1.9900  -18.1230 C   0  0  0  0  0  0  0  0  0  0  0  0
   -9.1210    4.3530  -16.6700 C   0  0  0  0  0  0  0  0  0  0  0  0
   -9.4350    3.5340  -15.6360 N   0  0  0  0  0  0  0  0  0  0  0  0
  -15.4930    0.6900   -7.8980 C   0  0  0  0  0  0  0  0  0  0  0  0
  -14.3790    1.2560   -7.1660 O   0  0  0  0  0  0  0  0  0  0  0  0
  -13.6500    0.0040   -7.2820 C   0  0  0  0  0  0  0  0  0  0  0  0
  -15.3314   -2.0167   -6.9809 H   0  0  0  0  0  0  0  0  0  0  0  0
  -16.2677   -1.9025   -8.5096 H   0  0  0  0  0  0  0  0  0  0  0  0
  -14.6364   -2.6545   -8.5096 H   0  0  0  0  0  0  0  0  0  0  0  0
  -13.0207   -0.4172   -9.7897 H   0  0  0  0  0  0  0  0  0  0  0  0
  -14.5221   -1.1598  -10.4156 H   0  0  0  0  0  0  0  0  0  0  0  0
  -15.0679    3.0830  -11.8680 H   0  0  0  0  0  0  0  0  0  0  0  0
  -13.4424    4.0667  -13.5017 H   0  0  0  0  0  0  0  0  0  0  0  0
  -12.1783    0.0967  -10.7052 H   0  0  0  0  0  0  0  0  0  0  0  0
   -8.7766    1.9399  -13.7578 H   0  0  0  0  0  0  0  0  0  0  0  0
  -12.3535    4.8996  -14.5870 H   0  0  0  0  0  0  0  0  0  0  0  0
  -11.8208    6.4412  -16.4844 H   0  0  0  0  0  0  0  0  0  0  0  0
  -10.3657    7.1090  -18.3118 H   0  0  0  0  0  0  0  0  0  0  0  0
   -8.3167    6.7447  -19.6785 H   0  0  0  0  0  0  0  0  0  0  0  0
   -6.7879    4.8648  -19.1425 H   0  0  0  0  0  0  0  0  0  0  0  0
   -5.1381    3.9169  -17.3604 H   0  0  0  0  0  0  0  0  0  0  0  0
   -5.9874    4.3295  -15.8320 H   0  0  0  0  0  0  0  0  0  0  0  0
   -4.1086    2.6788  -15.5349 H   0  0  0  0  0  0  0  0  0  0  0  0
   -5.7425    2.0597  -15.0188 H   0  0  0  0  0  0  0  0  0  0  0  0
   -4.6445    0.2872  -16.1426 H   0  0  0  0  0  0  0  0  0  0  0  0
   -3.0850    0.7530  -17.5270 H   0  0  0  0  0  0  0  0  0  0  0  0
   -3.5650    2.2870  -17.7770 H   0  0  0  0  0  0  0  0  0  0  0  0
   -6.1062    0.0063  -18.2014 H   0  0  0  0  0  0  0  0  0  0  0  0
   -6.9696    0.4345  -16.6580 H   0  0  0  0  0  0  0  0  0  0  0  0
   -6.3045    2.3212  -18.9628 H   0  0  0  0  0  0  0  0  0  0  0  0
   -7.9274    1.7095  -18.5004 H   0  0  0  0  0  0  0  0  0  0  0  0
  -15.8461    1.3213   -8.7267 H   0  0  0  0  0  0  0  0  0  0  0  0
  -16.4486    0.5113   -7.3834 H   0  0  0  0  0  0  0  0  0  0  0  0
  -12.6193    0.1219   -7.6478 H   0  0  0  0  0  0  0  0  0  0  0  0
  -13.4561   -0.6009   -6.3839 H   0  0  0  0  0  0  0  0  0  0  0  0
  1  2  1  0
  2  3  1  0
  3  4  1  0
  4  5  1  0
  5  6  2  0
  6  7  1  0
  7  8  2  0
  8  9  1  0
  9 10  2  0
  9 11  1  0
 11 12  2  0
 12 13  1  0
 13 14  1  0
 14 15  1  0
 15 16  2  0
 16 17  1  0
 17 18  2  0
 18 19  1  0
 19 20  2  0
 20 21  1  0
 21 22  1  0
 22 23  1  0
 23 24  1  0
 24 25  1  0
 25 26  1  0
 25 27  1  0
 27 28  1  0
 21 29  2  0
 29 30  1  0
  2 31  1  0
 31 32  1  0
 32 33  1  0
 33  2  1  0
 10  5  1  0
 30 14  2  0
 13  8  1  0
 29 17  1  0
 28 22  1  0
  1 34  1  0
  1 35  1  0
  1 36  1  0
  3 37  1  0
  3 38  1  0
  6 39  1  0
  7 40  1  0
 10 41  1  0
 12 42  1  0
 15 43  1  0
 16 44  1  0
 18 45  1  0
 19 46  1  0
 20 47  1  0
 23 48  1  0
 23 49  1  0
 24 50  1  0
 24 51  1  0
 25 52  1  0
 26 53  1  0
 26 54  1  0
 27 55  1  0
 27 56  1  0
 28 57  1  0
 28 58  1  0
 31 59  1  0
 31 60  1  0
 33 61  1  0
 33 62  1  0
M  END
>  <meeko>  (3) 
{"is_sidechain": false}

>  <vina_affinity_kcal_mol>  (3) 
-9.699

>  <pose_rank>  (3) 
3

$$$$

     RDKit          3D

 62 67  0  0  0  0  0  0  0  0999 V2000
   -8.3280    5.9480  -19.2680 C   0  0  0  0  0  0  0  0  0  0  0  0
   -9.6960    6.5990  -19.4140 C   0  0  0  0  0  0  0  0  0  0  0  0
  -10.7760    5.9540  -18.5440 C   0  0  0  0  0  0  0  0  0  0  0  0
  -10.5750    6.3750  -17.1930 O   0  0  0  0  0  0  0  0  0  0  0  0
  -10.9520    5.5110  -16.2010 C   0  0  0  0  0  0  0  0  0  0  0  0
  -10.1140    4.6300  -15.5220 C   0  0  0  0  0  0  0  0  0  0  0  0
  -10.6030    3.7820  -14.5140 C   0  0  0  0  0  0  0  0  0  0  0  0
  -11.9750    3.8270  -14.2140 C   0  0  0  0  0  0  0  0  0  0  0  0
  -12.8160    4.7420  -14.8560 C   0  0  0  0  0  0  0  0  0  0  0  0
  -12.3060    5.5770  -15.8630 C   0  0  0  0  0  0  0  0  0  0  0  0
  -14.0870    4.6990  -14.3560 N   0  0  0  0  0  0  0  0  0  0  0  0
  -14.0450    3.7820  -13.4190 C   0  0  0  0  0  0  0  0  0  0  0  0
  -12.8130    3.1660  -13.3180 N   0  0  0  0  0  0  0  0  0  0  0  0
  -12.5680    2.0780  -12.4300 C   0  0  0  0  0  0  0  0  0  0  0  0
  -13.4140    1.7870  -11.3760 C   0  0  0  0  0  0  0  0  0  0  0  0
  -13.0980    0.7090  -10.5550 C   0  0  0  0  0  0  0  0  0  0  0  0
  -11.9440   -0.0500  -10.7900 C   0  0  0  0  0  0  0  0  0  0  0  0
  -11.6230   -1.1290   -9.9550 C   0  0  0  0  0  0  0  0  0  0  0  0
  -10.4690   -1.8660  -10.1800 C   0  0  0  0  0  0  0  0  0  0  0  0
   -9.6320   -1.5310  -11.2390 C   0  0  0  0  0  0  0  0  0  0  0  0
   -9.9300   -0.4570  -12.1020 C   0  0  0  0  0  0  0  0  0  0  0  0
   -9.0670   -0.1260  -13.1800 N   0  0  0  0  0  0  0  0  0  0  0  0
   -9.7200   -0.2340  -14.4960 C   0  0  0  0  0  0  0  0  0  0  0  0
   -8.9110    0.5470  -15.5320 C   0  0  0  0  0  0  0  0  0  0  0  0
   -7.4320    0.1420  -15.5600 C   0  0  0  0  0  0  0  0  0  0  0  0
   -7.2290   -1.1670  -16.1970 N   0  0  0  0  0  0  0  0  0  0  0  0
   -6.8410    0.1650  -14.1470 C   0  0  0  0  0  0  0  0  0  0  0  0
   -7.6860   -0.6230  -13.1460 C   0  0  0  0  0  0  0  0  0  0  0  0
  -11.1110    0.3040  -11.8720 C   0  0  0  0  0  0  0  0  0  0  0  0
  -11.4370    1.3620  -12.6560 N   0  0  0  0  0  0  0  0  0  0  0  0
   -9.6790    8.1340  -19.3020 C   0  0  0  0  0  0  0  0  0  0  0  0
  -10.4030    8.2670  -20.5490 O   0  0  0  0  0  0  0  0  0  0  0  0
  -10.1490    6.8710  -20.8600 C   0  0  0  0  0  0  0  0  0  0  0  0
   -8.0883    5.8339  -18.2005 H   0  0  0  0  0  0  0  0  0  0  0  0
   -8.3395    4.9588  -19.7490 H   0  0  0  0  0  0  0  0  0  0  0  0
   -7.5676    6.5808  -19.7490 H   0  0  0  0  0  0  0  0  0  0  0  0
  -11.7708    6.2727  -18.8888 H   0  0  0  0  0  0  0  0  0  0  0  0
  -10.7133    4.8579  -18.6126 H   0  0  0  0  0  0  0  0  0  0  0  0
   -9.0453    4.5973  -15.7806 H   0  0  0  0  0  0  0  0  0  0  0  0
   -9.9293    3.1006  -13.9738 H   0  0  0  0  0  0  0  0  0  0  0  0
  -12.9708    6.2813  -16.3845 H   0  0  0  0  0  0  0  0  0  0  0  0
  -14.9033    3.5294  -12.7791 H   0  0  0  0  0  0  0  0  0  0  0  0
  -14.3138    2.3921  -11.1912 H   0  0  0  0  0  0  0  0  0  0  0  0
  -13.7594    0.4506   -9.7149 H   0  0  0  0  0  0  0  0  0  0  0  0
  -12.2877   -1.3923   -9.1190 H   0  0  0  0  0  0  0  0  0  0  0  0
  -10.2172   -2.7118   -9.5234 H   0  0  0  0  0  0  0  0  0  0  0  0
   -8.7167   -2.1175  -11.4070 H   0  0  0  0  0  0  0  0  0  0  0  0
   -9.7728   -1.2917  -14.7934 H   0  0  0  0  0  0  0  0  0  0  0  0
  -10.7369    0.1812  -14.4359 H   0  0  0  0  0  0  0  0  0  0  0  0
   -9.3442    0.3645  -16.5265 H   0  0  0  0  0  0  0  0  0  0  0  0
   -8.9578    1.6106  -15.2553 H   0  0  0  0  0  0  0  0  0  0  0  0
   -6.8987    0.8824  -16.1743 H   0  0  0  0  0  0  0  0  0  0  0  0
   -7.4670   -1.0990  -17.1860 H   0  0  0  0  0  0  0  0  0  0  0  0
   -7.8620   -1.8590  -15.8020 H   0  0  0  0  0  0  0  0  0  0  0  0
   -5.8325   -0.2731  -14.1793 H   0  0  0  0  0  0  0  0  0  0  0  0
   -6.8164    1.2125  -13.8120 H   0  0  0  0  0  0  0  0  0  0  0  0
   -7.6727   -1.6899  -13.4134 H   0  0  0  0  0  0  0  0  0  0  0  0
   -7.2732   -0.4957  -12.1344 H   0  0  0  0  0  0  0  0  0  0  0  0
  -10.2243    8.5213  -18.4287 H   0  0  0  0  0  0  0  0  0  0  0  0
   -8.7221    8.6599  -19.1689 H   0  0  0  0  0  0  0  0  0  0  0  0
  -11.0480    6.3110  -21.1570 H   0  0  0  0  0  0  0  0  0  0  0  0
   -9.4866    6.6097  -21.6984 H   0  0  0  0  0  0  0  0  0  0  0  0
  1  2  1  0
  2  3  1  0
  3  4  1  0
  4  5  1  0
  5  6  2  0
  6  7  1  0
  7  8  2  0
  8  9  1  0
  9 10  2  0
  9 11  1  0
 11 12  2  0
 12 13  1  0
 13 14  1  0
 14 15  1  0
 15 16  2  0
 16 17  1  0
 17 18  2  0
 18 19  1  0
 19 20  2  0
 20 21  1  0
 21 22  1  0
 22 23  1  0
 23 24  1  0
 24 25  1  0
 25 26  1  0
 25 27  1  0
 27 28  1  0
 21 29  2  0
 29 30  1  0
  2 31  1  0
 31 32  1  0
 32 33  1  0
 33  2  1  0
 10  5  1  0
 30 14  2  0
 13  8  1  0
 29 17  1  0
 28 22  1  0
  1 34  1  0
  1 35  1  0
  1 36  1  0
  3 37  1  0
  3 38  1  0
  6 39  1  0
  7 40  1  0
 10 41  1  0
 12 42  1  0
 15 43  1  0
 16 44  1  0
 18 45  1  0
 19 46  1  0
 20 47  1  0
 23 48  1  0
 23 49  1  0
 24 50  1  0
 24 51  1  0
 25 52  1  0
 26 53  1  0
 26 54  1  0
 27 55  1  0
 27 56  1  0
 28 57  1  0
 28 58  1  0
 31 59  1  0
 31 60  1  0
 33 61  1  0
 33 62  1  0
M  END
>  <meeko>  (4) 
{"is_sidechain": false}

>  <vina_affinity_kcal_mol>  (4) 
-9.496

>  <pose_rank>  (4) 
4

$$$$

     RDKit          3D

 62 67  0  0  0  0  0  0  0  0999 V2000
  -13.7260   -4.1640   -8.6580 C   0  0  0  0  0  0  0  0  0  0  0  0
  -14.6000   -2.9940   -8.2280 C   0  0  0  0  0  0  0  0  0  0  0  0
  -13.8080   -1.7250   -7.9100 C   0  0  0  0  0  0  0  0  0  0  0  0
  -12.5110   -1.8450   -8.4980 O   0  0  0  0  0  0  0  0  0  0  0  0
  -12.2140   -1.0130   -9.5430 C   0  0  0  0  0  0  0  0  0  0  0  0
  -12.5530    0.3350   -9.6380 C   0  0  0  0  0  0  0  0  0  0  0  0
  -12.1980    1.1040  -10.7590 C   0  0  0  0  0  0  0  0  0  0  0  0
  -11.5010    0.4750  -11.8040 C   0  0  0  0  0  0  0  0  0  0  0  0
  -11.1130   -0.8650  -11.6980 C   0  0  0  0  0  0  0  0  0  0  0  0
  -11.4830   -1.6150  -10.5710 C   0  0  0  0  0  0  0  0  0  0  0  0
  -10.3620   -1.2610  -12.7680 N   0  0  0  0  0  0  0  0  0  0  0  0
  -10.2760   -0.1940  -13.5280 C   0  0  0  0  0  0  0  0  0  0  0  0
  -10.9940    0.8790  -13.0370 N   0  0  0  0  0  0  0  0  0  0  0  0
  -11.1160    2.1100  -13.7460 C   0  0  0  0  0  0  0  0  0  0  0  0
  -12.2060    2.9450  -13.5830 C   0  0  0  0  0  0  0  0  0  0  0  0
  -12.2470    4.1260  -14.3190 C   0  0  0  0  0  0  0  0  0  0  0  0
  -11.2140    4.4460  -15.2080 C   0  0  0  0  0  0  0  0  0  0  0  0
  -11.2640    5.6310  -15.9560 C   0  0  0  0  0  0  0  0  0  0  0  0
  -10.2480    5.9350  -16.8510 C   0  0  0  0  0  0  0  0  0  0  0  0
   -9.1770    5.0600  -17.0020 C   0  0  0  0  0  0  0  0  0  0  0  0
   -9.0930    3.8650  -16.2600 C   0  0  0  0  0  0  0  0  0  0  0  0
   -7.9940    2.9800  -16.4250 N   0  0  0  0  0  0  0  0  0  0  0  0
   -6.7990    3.6420  -16.9760 C   0  0  0  0  0  0  0  0  0  0  0  0
   -5.5670    2.7780  -16.7050 C   0  0  0  0  0  0  0  0  0  0  0  0
   -5.7340    1.3340  -17.1940 C   0  0  0  0  0  0  0  0  0  0  0  0
   -5.6440    1.2330  -18.6570 N   0  0  0  0  0  0  0  0  0  0  0  0
   -7.0500    0.7410  -16.6800 C   0  0  0  0  0  0  0  0  0  0  0  0
   -8.2500    1.6420  -16.9680 C   0  0  0  0  0  0  0  0  0  0  0  0
  -10.1360    3.5470  -15.3440 C   0  0  0  0  0  0  0  0  0  0  0  0
  -10.1190    2.4000  -14.6200 N   0  0  0  0  0  0  0  0  0  0  0  0
  -15.8000   -2.7300   -9.1550 C   0  0  0  0  0  0  0  0  0  0  0  0
  -16.7140   -2.7470   -8.0310 O   0  0  0  0  0  0  0  0  0  0  0  0
  -15.6830   -3.3230   -7.1850 C   0  0  0  0  0  0  0  0  0  0  0  0
  -13.3402   -4.6805   -7.7667 H   0  0  0  0  0  0  0  0  0  0  0  0
  -14.3227   -4.8660   -9.2590 H   0  0  0  0  0  0  0  0  0  0  0  0
  -12.8836   -3.7909   -9.2590 H   0  0  0  0  0  0  0  0  0  0  0  0
  -14.3259   -0.8491   -8.3277 H   0  0  0  0  0  0  0  0  0  0  0  0
  -13.7195   -1.5970   -6.8211 H   0  0  0  0  0  0  0  0  0  0  0  0
  -13.1113    0.8080   -8.8167 H   0  0  0  0  0  0  0  0  0  0  0  0
  -12.4591    2.1710  -10.8169 H   0  0  0  0  0  0  0  0  0  0  0  0
  -11.1982   -2.6749  -10.4968 H   0  0  0  0  0  0  0  0  0  0  0  0
   -9.6924   -0.1582  -14.4597 H   0  0  0  0  0  0  0  0  0  0  0  0
  -13.0192    2.6831  -12.8901 H   0  0  0  0  0  0  0  0  0  0  0  0
  -13.0978    4.8132  -14.2011 H   0  0  0  0  0  0  0  0  0  0  0  0
  -12.1112    6.3217  -15.8330 H   0  0  0  0  0  0  0  0  0  0  0  0
  -10.2893    6.8640  -17.4386 H   0  0  0  0  0  0  0  0  0  0  0  0
   -8.3779    5.3065  -17.7166 H   0  0  0  0  0  0  0  0  0  0  0  0
   -6.9215    3.7759  -18.0609 H   0  0  0  0  0  0  0  0  0  0  0  0
   -6.6705    4.6241  -16.4975 H   0  0  0  0  0  0  0  0  0  0  0  0
   -4.7039    3.2256  -17.2195 H   0  0  0  0  0  0  0  0  0  0  0  0
   -5.4200    2.7436  -15.6154 H   0  0  0  0  0  0  0  0  0  0  0  0
   -4.9009    0.7464  -16.7810 H   0  0  0  0  0  0  0  0  0  0  0  0
   -4.9440    1.8910  -18.9970 H   0  0  0  0  0  0  0  0  0  0  0  0
   -6.5230    1.5090  -19.0900 H   0  0  0  0  0  0  0  0  0  0  0  0
   -7.2135   -0.2310  -17.1684 H   0  0  0  0  0  0  0  0  0  0  0  0
   -6.9653    0.6360  -15.5883 H   0  0  0  0  0  0  0  0  0  0  0  0
   -8.4056    1.7103  -18.0548 H   0  0  0  0  0  0  0  0  0  0  0  0
   -9.1493    1.2192  -16.4964 H   0  0  0  0  0  0  0  0  0  0  0  0
  -15.7544   -1.7620   -9.6755 H   0  0  0  0  0  0  0  0  0  0  0  0
  -15.9808   -3.3920  -10.0147 H   0  0  0  0  0  0  0  0  0  0  0  0
  -15.5507   -2.7997   -6.2265 H   0  0  0  0  0  0  0  0  0  0  0  0
  -15.7914   -4.3536   -6.8161 H   0  0  0  0  0  0  0  0  0  0  0  0
  1  2  1  0
  2  3  1  0
  3  4  1  0
  4  5  1  0
  5  6  2  0
  6  7  1  0
  7  8  2  0
  8  9  1  0
  9 10  2  0
  9 11  1  0
 11 12  2  0
 12 13  1  0
 13 14  1  0
 14 15  1  0
 15 16  2  0
 16 17  1  0
 17 18  2  0
 18 19  1  0
 19 20  2  0
 20 21  1  0
 21 22  1  0
 22 23  1  0
 23 24  1  0
 24 25  1  0
 25 26  1  0
 25 27  1  0
 27 28  1  0
 21 29  2  0
 29 30  1  0
  2 31  1  0
 31 32  1  0
 32 33  1  0
 33  2  1  0
 10  5  1  0
 30 14  2  0
 13  8  1  0
 29 17  1  0
 28 22  1  0
  1 34  1  0
  1 35  1  0
  1 36  1  0
  3 37  1  0
  3 38  1  0
  6 39  1  0
  7 40  1  0
 10 41  1  0
 12 42  1  0
 15 43  1  0
 16 44  1  0
 18 45  1  0
 19 46  1  0
 20 47  1  0
 23 48  1  0
 23 49  1  0
 24 50  1  0
 24 51  1  0
 25 52  1  0
 26 53  1  0
 26 54  1  0
 27 55  1  0
 27 56  1  0
 28 57  1  0
 28 58  1  0
 31 59  1  0
 31 60  1  0
 33 61  1  0
 33 62  1  0
M  END
>  <meeko>  (5) 
{"is_sidechain": false}

>  <vina_affinity_kcal_mol>  (5) 
-9.481

>  <pose_rank>  (5) 
5

$$$$

     RDKit          3D

 62 67  0  0  0  0  0  0  0  0999 V2000
  -14.8270   -3.3220   -8.8780 C   0  0  0  0  0  0  0  0  0  0  0  0
  -13.4900   -3.9880   -9.1720 C   0  0  0  0  0  0  0  0  0  0  0  0
  -12.2830   -3.1300   -8.7920 C   0  0  0  0  0  0  0  0  0  0  0  0
  -12.6970   -1.7630   -8.7570 O   0  0  0  0  0  0  0  0  0  0  0  0
  -12.2640   -0.9470   -9.7670 C   0  0  0  0  0  0  0  0  0  0  0  0
  -12.7130    0.3470  -10.0230 C   0  0  0  0  0  0  0  0  0  0  0  0
  -12.2000    1.1040  -11.0900 C   0  0  0  0  0  0  0  0  0  0  0  0
  -11.2270    0.5160  -11.9160 C   0  0  0  0  0  0  0  0  0  0  0  0
  -10.7340   -0.7640  -11.6380 C   0  0  0  0  0  0  0  0  0  0  0  0
  -11.2640   -1.5030  -10.5700 C   0  0  0  0  0  0  0  0  0  0  0  0
   -9.7270   -1.1150  -12.4920 N   0  0  0  0  0  0  0  0  0  0  0  0
   -9.5870   -0.0790  -13.2850 C   0  0  0  0  0  0  0  0  0  0  0  0
  -10.5040    0.9240  -13.0350 N   0  0  0  0  0  0  0  0  0  0  0  0
  -10.5940    2.1000  -13.8350 C   0  0  0  0  0  0  0  0  0  0  0  0
  -11.6490    2.9860  -13.7200 C   0  0  0  0  0  0  0  0  0  0  0  0
  -11.6600    4.1080  -14.5440 C   0  0  0  0  0  0  0  0  0  0  0  0
  -10.6320    4.3200  -15.4710 C   0  0  0  0  0  0  0  0  0  0  0  0
  -10.6520    5.4450  -16.3060 C   0  0  0  0  0  0  0  0  0  0  0  0
   -9.6410    5.6420  -17.2370 C   0  0  0  0  0  0  0  0  0  0  0  0
   -8.6050    4.7180  -17.3360 C   0  0  0  0  0  0  0  0  0  0  0  0
   -8.5520    3.5800  -16.5050 C   0  0  0  0  0  0  0  0  0  0  0  0
   -7.4890    2.6450  -16.6170 N   0  0  0  0  0  0  0  0  0  0  0  0
   -6.1910    3.2790  -16.9050 C   0  0  0  0  0  0  0  0  0  0  0  0
   -5.0620    2.3050  -16.5680 C   0  0  0  0  0  0  0  0  0  0  0  0
   -5.2290    0.9420  -17.2490 C   0  0  0  0  0  0  0  0  0  0  0  0
   -4.9240    1.0020  -18.6860 N   0  0  0  0  0  0  0  0  0  0  0  0
   -6.6360    0.3880  -17.0070 C   0  0  0  0  0  0  0  0  0  0  0  0
   -7.7300    1.3980  -17.3520 C   0  0  0  0  0  0  0  0  0  0  0  0
   -9.5890    3.3730  -15.5520 C   0  0  0  0  0  0  0  0  0  0  0  0
   -9.6020    2.2850  -14.7430 N   0  0  0  0  0  0  0  0  0  0  0  0
  -13.3790   -5.4340   -8.6550 C   0  0  0  0  0  0  0  0  0  0  0  0
  -12.9570   -5.9030   -9.9590 O   0  0  0  0  0  0  0  0  0  0  0  0
  -13.3690   -4.6460  -10.5590 C   0  0  0  0  0  0  0  0  0  0  0  0
  -14.9697   -3.2509   -7.7896 H   0  0  0  0  0  0  0  0  0  0  0  0
  -14.8382   -2.3130   -9.3160 H   0  0  0  0  0  0  0  0  0  0  0  0
  -15.6391   -3.9209   -9.3160 H   0  0  0  0  0  0  0  0  0  0  0  0
  -11.9097   -3.4310   -7.8020 H   0  0  0  0  0  0  0  0  0  0  0  0
  -11.4768   -3.2629   -9.5285 H   0  0  0  0  0  0  0  0  0  0  0  0
  -13.4863    0.7858   -9.3754 H   0  0  0  0  0  0  0  0  0  0  0  0
  -12.5510    2.1302  -11.2739 H   0  0  0  0  0  0  0  0  0  0  0  0
  -10.8934   -2.5181  -10.3648 H   0  0  0  0  0  0  0  0  0  0  0  0
   -8.8180   -0.0154  -14.0689 H   0  0  0  0  0  0  0  0  0  0  0  0
  -12.4584    2.8091  -12.9965 H   0  0  0  0  0  0  0  0  0  0  0  0
  -12.4828    4.8339  -14.4663 H   0  0  0  0  0  0  0  0  0  0  0  0
  -11.4713    6.1744  -16.2237 H   0  0  0  0  0  0  0  0  0  0  0  0
   -9.6588    6.5245  -17.8934 H   0  0  0  0  0  0  0  0  0  0  0  0
   -7.8099    4.8790  -18.0789 H   0  0  0  0  0  0  0  0  0  0  0  0
   -6.1408    3.5436  -17.9715 H   0  0  0  0  0  0  0  0  0  0  0  0
   -6.0843    4.1888  -16.2960 H   0  0  0  0  0  0  0  0  0  0  0  0
   -4.1085    2.7461  -16.8940 H   0  0  0  0  0  0  0  0  0  0  0  0
   -5.0838    2.1366  -15.4812 H   0  0  0  0  0  0  0  0  0  0  0  0
   -4.5001    0.2544  -16.7952 H   0  0  0  0  0  0  0  0  0  0  0  0
   -4.1600    1.6590  -18.8400 H   0  0  0  0  0  0  0  0  0  0  0  0
   -5.7180    1.3680  -19.2060 H   0  0  0  0  0  0  0  0  0  0  0  0
   -6.7742   -0.5082  -17.6297 H   0  0  0  0  0  0  0  0  0  0  0  0
   -6.7233    0.1536  -15.9358 H   0  0  0  0  0  0  0  0  0  0  0  0
   -7.7155    1.6002  -18.4332 H   0  0  0  0  0  0  0  0  0  0  0  0
   -8.7113    0.9884  -17.0704 H   0  0  0  0  0  0  0  0  0  0  0  0
  -12.6214   -5.5674   -7.8687 H   0  0  0  0  0  0  0  0  0  0  0  0
  -14.2417   -5.9035   -8.1598 H   0  0  0  0  0  0  0  0  0  0  0  0
  -12.6033   -4.1886  -11.2028 H   0  0  0  0  0  0  0  0  0  0  0  0
  -14.2243   -4.6248  -11.2504 H   0  0  0  0  0  0  0  0  0  0  0  0
  1  2  1  0
  2  3  1  0
  3  4  1  0
  4  5  1  0
  5  6  2  0
  6  7  1  0
  7  8  2  0
  8  9  1  0
  9 10  2  0
  9 11  1  0
 11 12  2  0
 12 13  1  0
 13 14  1  0
 14 15  1  0
 15 16  2  0
 16 17  1  0
 17 18  2  0
 18 19  1  0
 19 20  2  0
 20 21  1  0
 21 22  1  0
 22 23  1  0
 23 24  1  0
 24 25  1  0
 25 26  1  0
 25 27  1  0
 27 28  1  0
 21 29  2  0
 29 30  1  0
  2 31  1  0
 31 32  1  0
 32 33  1  0
 33  2  1  0
 10  5  1  0
 30 14  2  0
 13  8  1  0
 29 17  1  0
 28 22  1  0
  1 34  1  0
  1 35  1  0
  1 36  1  0
  3 37  1  0
  3 38  1  0
  6 39  1  0
  7 40  1  0
 10 41  1  0
 12 42  1  0
 15 43  1  0
 16 44  1  0
 18 45  1  0
 19 46  1  0
 20 47  1  0
 23 48  1  0
 23 49  1  0
 24 50  1  0
 24 51  1  0
 25 52  1  0
 26 53  1  0
 26 54  1  0
 27 55  1  0
 27 56  1  0
 28 57  1  0
 28 58  1  0
 31 59  1  0
 31 60  1  0
 33 61  1  0
 33 62  1  0
M  END
>  <meeko>  (6) 
{"is_sidechain": false}

>  <vina_affinity_kcal_mol>  (6) 
-9.371

>  <pose_rank>  (6) 
6

$$$$

     RDKit          3D

 62 67  0  0  0  0  0  0  0  0999 V2000
   -8.3280    5.9190  -19.1050 C   0  0  0  0  0  0  0  0  0  0  0  0
   -9.6480    6.6590  -19.2680 C   0  0  0  0  0  0  0  0  0  0  0  0
  -10.8050    6.0200  -18.4970 C   0  0  0  0  0  0  0  0  0  0  0  0
  -10.6540    6.3420  -17.1130 O   0  0  0  0  0  0  0  0  0  0  0  0
  -10.7020    5.3090  -16.2170 C   0  0  0  0  0  0  0  0  0  0  0  0
   -9.6840    4.3880  -15.9740 C   0  0  0  0  0  0  0  0  0  0  0  0
   -9.8350    3.3600  -15.0280 C   0  0  0  0  0  0  0  0  0  0  0  0
  -11.0540    3.2660  -14.3360 C   0  0  0  0  0  0  0  0  0  0  0  0
  -12.0640    4.2130  -14.5370 C   0  0  0  0  0  0  0  0  0  0  0  0
  -11.8930    5.2290  -15.4900 C   0  0  0  0  0  0  0  0  0  0  0  0
  -13.1250    4.0070  -13.7020 N   0  0  0  0  0  0  0  0  0  0  0  0
  -12.7900    2.9580  -12.9900 C   0  0  0  0  0  0  0  0  0  0  0  0
  -11.5740    2.4170  -13.3610 N   0  0  0  0  0  0  0  0  0  0  0  0
  -11.0570    1.2210  -12.7840 C   0  0  0  0  0  0  0  0  0  0  0  0
  -10.0150    0.5190  -13.3610 C   0  0  0  0  0  0  0  0  0  0  0  0
   -9.5750   -0.6430  -12.7330 C   0  0  0  0  0  0  0  0  0  0  0  0
  -10.1860   -1.0890  -11.5550 C   0  0  0  0  0  0  0  0  0  0  0  0
   -9.7470   -2.2650  -10.9310 C   0  0  0  0  0  0  0  0  0  0  0  0
  -10.3680   -2.7150   -9.7730 C   0  0  0  0  0  0  0  0  0  0  0  0
  -11.4270   -1.9920   -9.2330 C   0  0  0  0  0  0  0  0  0  0  0  0
  -11.8860   -0.8010   -9.8320 C   0  0  0  0  0  0  0  0  0  0  0  0
  -12.9680   -0.0730   -9.2690 N   0  0  0  0  0  0  0  0  0  0  0  0
  -13.1580   -0.3400   -7.8330 C   0  0  0  0  0  0  0  0  0  0  0  0
  -14.0040    0.7740   -7.2150 C   0  0  0  0  0  0  0  0  0  0  0  0
  -15.3220    1.0050   -7.9630 C   0  0  0  0  0  0  0  0  0  0  0  0
  -16.3000   -0.0610   -7.7010 N   0  0  0  0  0  0  0  0  0  0  0  0
  -15.0670    1.1620   -9.4660 C   0  0  0  0  0  0  0  0  0  0  0  0
  -14.2140    0.0300  -10.0370 C   0  0  0  0  0  0  0  0  0  0  0  0
  -11.2550   -0.3390  -11.0210 C   0  0  0  0  0  0  0  0  0  0  0  0
  -11.6700    0.7870  -11.6530 N   0  0  0  0  0  0  0  0  0  0  0  0
   -9.5520    8.1790  -19.0450 C   0  0  0  0  0  0  0  0  0  0  0  0
  -10.2040    8.4400  -20.3120 O   0  0  0  0  0  0  0  0  0  0  0  0
  -10.0120    7.0560  -20.7100 C   0  0  0  0  0  0  0  0  0  0  0  0
   -8.1069    5.7950  -18.0346 H   0  0  0  0  0  0  0  0  0  0  0  0
   -8.4008    4.9301  -19.5813 H   0  0  0  0  0  0  0  0  0  0  0  0
   -7.5224    6.4970  -19.5813 H   0  0  0  0  0  0  0  0  0  0  0  0
  -11.7623    6.4146  -18.8684 H   0  0  0  0  0  0  0  0  0  0  0  0
  -10.7958    4.9288  -18.6354 H   0  0  0  0  0  0  0  0  0  0  0  0
   -8.7414    4.4678  -16.5354 H   0  0  0  0  0  0  0  0  0  0  0  0
   -9.0198    2.6473  -14.8343 H   0  0  0  0  0  0  0  0  0  0  0  0
  -12.6951    5.9612  -15.6645 H   0  0  0  0  0  0  0  0  0  0  0  0
  -13.4132    2.5505  -12.1803 H   0  0  0  0  0  0  0  0  0  0  0  0
   -9.5458    0.8695  -14.2921 H   0  0  0  0  0  0  0  0  0  0  0  0
   -8.7410   -1.2150  -13.1657 H   0  0  0  0  0  0  0  0  0  0  0  0
   -8.9083   -2.8331  -11.3597 H   0  0  0  0  0  0  0  0  0  0  0  0
  -10.0241   -3.6389   -9.2850 H   0  0  0  0  0  0  0  0  0  0  0  0
  -11.9170   -2.3576   -8.3185 H   0  0  0  0  0  0  0  0  0  0  0  0
  -13.6710   -1.3045   -7.7041 H   0  0  0  0  0  0  0  0  0  0  0  0
  -12.1784   -0.3762   -7.3340 H   0  0  0  0  0  0  0  0  0  0  0  0
  -14.2337    0.5040   -6.1737 H   0  0  0  0  0  0  0  0  0  0  0  0
  -13.4212    1.7049   -7.2767 H   0  0  0  0  0  0  0  0  0  0  0  0
  -15.7585    1.9403   -7.5826 H   0  0  0  0  0  0  0  0  0  0  0  0
  -16.0070   -0.5920   -6.8820 H   0  0  0  0  0  0  0  0  0  0  0  0
  -16.3220   -0.7250   -8.4720 H   0  0  0  0  0  0  0  0  0  0  0  0
  -16.0348    1.1723   -9.9887 H   0  0  0  0  0  0  0  0  0  0  0  0
  -14.5165    2.1026   -9.6148 H   0  0  0  0  0  0  0  0  0  0  0  0
  -14.7676   -0.9180   -9.9680 H   0  0  0  0  0  0  0  0  0  0  0  0
  -13.9808    0.2401  -11.0913 H   0  0  0  0  0  0  0  0  0  0  0  0
  -10.1185    8.5362  -18.1724 H   0  0  0  0  0  0  0  0  0  0  0  0
   -8.5755    8.6376  -18.8300 H   0  0  0  0  0  0  0  0  0  0  0  0
  -10.9245    6.5714  -21.0876 H   0  0  0  0  0  0  0  0  0  0  0  0
   -9.3237    6.8148  -21.5334 H   0  0  0  0  0  0  0  0  0  0  0  0
  1  2  1  0
  2  3  1  0
  3  4  1  0
  4  5  1  0
  5  6  2  0
  6  7  1  0
  7  8  2  0
  8  9  1  0
  9 10  2  0
  9 11  1  0
 11 12  2  0
 12 13  1  0
 13 14  1  0
 14 15  1  0
 15 16  2  0
 16 17  1  0
 17 18  2  0
 18 19  1  0
 19 20  2  0
 20 21  1  0
 21 22  1  0
 22 23  1  0
 23 24  1  0
 24 25  1  0
 25 26  1  0
 25 27  1  0
 27 28  1  0
 21 29  2  0
 29 30  1  0
  2 31  1  0
 31 32  1  0
 32 33  1  0
 33  2  1  0
 10  5  1  0
 30 14  2  0
 13  8  1  0
 29 17  1  0
 28 22  1  0
  1 34  1  0
  1 35  1  0
  1 36  1  0
  3 37  1  0
  3 38  1  0
  6 39  1  0
  7 40  1  0
 10 41  1  0
 12 42  1  0
 15 43  1  0
 16 44  1  0
 18 45  1  0
 19 46  1  0
 20 47  1  0
 23 48  1  0
 23 49  1  0
 24 50  1  0
 24 51  1  0
 25 52  1  0
 26 53  1  0
 26 54  1  0
 27 55  1  0
 27 56  1  0
 28 57  1  0
 28 58  1  0
 31 59  1  0
 31 60  1  0
 33 61  1  0
 33 62  1  0
M  END
>  <meeko>  (7) 
{"is_sidechain": false}

>  <vina_affinity_kcal_mol>  (7) 
-9.122

>  <pose_rank>  (7) 
7

$$$$

     RDKit          3D

 62 67  0  0  0  0  0  0  0  0999 V2000
   -1.3490   -0.7780  -20.1370 C   0  0  0  0  0  0  0  0  0  0  0  0
   -1.7430   -0.1220  -18.8210 C   0  0  0  0  0  0  0  0  0  0  0  0
   -3.1550   -0.4830  -18.3570 C   0  0  0  0  0  0  0  0  0  0  0  0
   -3.9900    0.6640  -18.5250 O   0  0  0  0  0  0  0  0  0  0  0  0
   -5.0220    0.8280  -17.6430 C   0  0  0  0  0  0  0  0  0  0  0  0
   -6.3300    1.1800  -17.9690 C   0  0  0  0  0  0  0  0  0  0  0  0
   -7.3200    1.3220  -16.9820 C   0  0  0  0  0  0  0  0  0  0  0  0
   -6.9560    1.1170  -15.6400 C   0  0  0  0  0  0  0  0  0  0  0  0
   -5.6580    0.7160  -15.3060 C   0  0  0  0  0  0  0  0  0  0  0  0
   -4.6840    0.5840  -16.3080 C   0  0  0  0  0  0  0  0  0  0  0  0
   -5.5320    0.4730  -13.9680 N   0  0  0  0  0  0  0  0  0  0  0  0
   -6.7230    0.7120  -13.4720 C   0  0  0  0  0  0  0  0  0  0  0  0
   -7.6220    1.1660  -14.4180 N   0  0  0  0  0  0  0  0  0  0  0  0
   -8.9470    1.5740  -14.0840 C   0  0  0  0  0  0  0  0  0  0  0  0
   -9.7310    0.8640  -13.1950 C   0  0  0  0  0  0  0  0  0  0  0  0
  -11.0150    1.3310  -12.9300 C   0  0  0  0  0  0  0  0  0  0  0  0
  -11.4970    2.4840  -13.5610 C   0  0  0  0  0  0  0  0  0  0  0  0
  -12.7940    2.9450  -13.3000 C   0  0  0  0  0  0  0  0  0  0  0  0
  -13.2760    4.0780  -13.9430 C   0  0  0  0  0  0  0  0  0  0  0  0
  -12.4640    4.7550  -14.8470 C   0  0  0  0  0  0  0  0  0  0  0  0
  -11.1520    4.3210  -15.1260 C   0  0  0  0  0  0  0  0  0  0  0  0
  -10.3330    5.0230  -16.0510 N   0  0  0  0  0  0  0  0  0  0  0  0
  -10.7850    6.4040  -16.2890 C   0  0  0  0  0  0  0  0  0  0  0  0
   -9.6460    7.2130  -16.9090 C   0  0  0  0  0  0  0  0  0  0  0  0
   -9.0570    6.5500  -18.1600 C   0  0  0  0  0  0  0  0  0  0  0  0
   -9.9490    6.6710  -19.3220 N   0  0  0  0  0  0  0  0  0  0  0  0
   -8.7130    5.0840  -17.8790 C   0  0  0  0  0  0  0  0  0  0  0  0
   -9.8790    4.3180  -17.2550 C   0  0  0  0  0  0  0  0  0  0  0  0
  -10.6560    3.1580  -14.4720 C   0  0  0  0  0  0  0  0  0  0  0  0
   -9.4100    2.6820  -14.7180 N   0  0  0  0  0  0  0  0  0  0  0  0
   -0.6930   -0.2700  -17.7050 C   0  0  0  0  0  0  0  0  0  0  0  0
   -0.7030    1.1580  -17.4610 O   0  0  0  0  0  0  0  0  0  0  0  0
   -1.4190    1.3780  -18.7060 C   0  0  0  0  0  0  0  0  0  0  0  0
   -0.7925   -1.7046  -19.9327 H   0  0  0  0  0  0  0  0  0  0  0  0
   -2.2549   -1.0142  -20.7146 H   0  0  0  0  0  0  0  0  0  0  0  0
   -0.7150   -0.0893  -20.7146 H   0  0  0  0  0  0  0  0  0  0  0  0
   -3.5429   -1.3169  -18.9605 H   0  0  0  0  0  0  0  0  0  0  0  0
   -3.1398   -0.7890  -17.3005 H   0  0  0  0  0  0  0  0  0  0  0  0
   -6.5937    1.3507  -19.0232 H   0  0  0  0  0  0  0  0  0  0  0  0
   -8.3528    1.5867  -17.2525 H   0  0  0  0  0  0  0  0  0  0  0  0
   -3.6576    0.2894  -16.0440 H   0  0  0  0  0  0  0  0  0  0  0  0
   -6.9794    0.5660  -12.4123 H   0  0  0  0  0  0  0  0  0  0  0  0
   -9.3503   -0.0466  -12.7094 H   0  0  0  0  0  0  0  0  0  0  0  0
  -11.6564    0.7897  -12.2189 H   0  0  0  0  0  0  0  0  0  0  0  0
  -13.4328    2.4079  -12.5834 H   0  0  0  0  0  0  0  0  0  0  0  0
  -14.2950    4.4382  -13.7383 H   0  0  0  0  0  0  0  0  0  0  0  0
  -12.8543    5.6489  -15.3555 H   0  0  0  0  0  0  0  0  0  0  0  0
  -11.6446    6.3954  -16.9754 H   0  0  0  0  0  0  0  0  0  0  0  0
  -11.0828    6.8621  -15.3343 H   0  0  0  0  0  0  0  0  0  0  0  0
  -10.0304    8.2058  -17.1856 H   0  0  0  0  0  0  0  0  0  0  0  0
   -8.8425    7.2798  -16.1608 H   0  0  0  0  0  0  0  0  0  0  0  0
   -8.1298    7.0852  -18.4125 H   0  0  0  0  0  0  0  0  0  0  0  0
  -10.5180    7.5110  -19.2220 H   0  0  0  0  0  0  0  0  0  0  0  0
  -10.6040    5.8920  -19.3540 H   0  0  0  0  0  0  0  0  0  0  0  0
   -8.4389    4.5981  -18.8270 H   0  0  0  0  0  0  0  0  0  0  0  0
   -7.8802    5.0681  -17.1605 H   0  0  0  0  0  0  0  0  0  0  0  0
  -10.7059    4.2548  -17.9777 H   0  0  0  0  0  0  0  0  0  0  0  0
   -9.5515    3.3029  -16.9863 H   0  0  0  0  0  0  0  0  0  0  0  0
   -1.0365   -0.8691  -16.8488 H   0  0  0  0  0  0  0  0  0  0  0  0
    0.2584   -0.7804  -17.9158 H   0  0  0  0  0  0  0  0  0  0  0  0
   -2.3075    2.0179  -18.6007 H   0  0  0  0  0  0  0  0  0  0  0  0
   -0.9202    1.8947  -19.5392 H   0  0  0  0  0  0  0  0  0  0  0  0
  1  2  1  0
  2  3  1  0
  3  4  1  0
  4  5  1  0
  5  6  2  0
  6  7  1  0
  7  8  2  0
  8  9  1  0
  9 10  2  0
  9 11  1  0
 11 12  2  0
 12 13  1  0
 13 14  1  0
 14 15  1  0
 15 16  2  0
 16 17  1  0
 17 18  2  0
 18 19  1  0
 19 20  2  0
 20 21  1  0
 21 22  1  0
 22 23  1  0
 23 24  1  0
 24 25  1  0
 25 26  1  0
 25 27  1  0
 27 28  1  0
 21 29  2  0
 29 30  1  0
  2 31  1  0
 31 32  1  0
 32 33  1  0
 33  2  1  0
 10  5  1  0
 30 14  2  0
 13  8  1  0
 29 17  1  0
 28 22  1  0
  1 34  1  0
  1 35  1  0
  1 36  1  0
  3 37  1  0
  3 38  1  0
  6 39  1  0
  7 40  1  0
 10 41  1  0
 12 42  1  0
 15 43  1  0
 16 44  1  0
 18 45  1  0
 19 46  1  0
 20 47  1  0
 23 48  1  0
 23 49  1  0
 24 50  1  0
 24 51  1  0
 25 52  1  0
 26 53  1  0
 26 54  1  0
 27 55  1  0
 27 56  1  0
 28 57  1  0
 28 58  1  0
 31 59  1  0
 31 60  1  0
 33 61  1  0
 33 62  1  0
M  END
>  <meeko>  (8) 
{"is_sidechain": false}

>  <vina_affinity_kcal_mol>  (8) 
-9.108

>  <pose_rank>  (8) 
8

$$$$

     RDKit          3D

 62 67  0  0  0  0  0  0  0  0999 V2000
   -9.6030    7.9330  -17.5370 C   0  0  0  0  0  0  0  0  0  0  0  0
   -9.9900    6.9270  -18.6120 C   0  0  0  0  0  0  0  0  0  0  0  0
  -11.1740    6.0410  -18.2230 C   0  0  0  0  0  0  0  0  0  0  0  0
  -11.4190    6.2070  -16.8250 O   0  0  0  0  0  0  0  0  0  0  0  0
  -11.1660    5.1390  -16.0090 C   0  0  0  0  0  0  0  0  0  0  0  0
   -9.9580    4.4510  -15.9130 C   0  0  0  0  0  0  0  0  0  0  0  0
   -9.8010    3.3620  -15.0390 C   0  0  0  0  0  0  0  0  0  0  0  0
  -10.9060    2.9620  -14.2680 C   0  0  0  0  0  0  0  0  0  0  0  0
  -12.1080    3.6760  -14.3210 C   0  0  0  0  0  0  0  0  0  0  0  0
  -12.2430    4.7580  -15.2040 C   0  0  0  0  0  0  0  0  0  0  0  0
  -13.0220    3.1950  -13.4270 N   0  0  0  0  0  0  0  0  0  0  0  0
  -12.4080    2.2040  -12.8240 C   0  0  0  0  0  0  0  0  0  0  0  0
  -11.1430    1.9650  -13.3250 N   0  0  0  0  0  0  0  0  0  0  0  0
  -10.3340    0.8790  -12.8800 C   0  0  0  0  0  0  0  0  0  0  0  0
  -10.7510    0.0120  -11.8880 C   0  0  0  0  0  0  0  0  0  0  0  0
   -9.8950   -1.0190  -11.5120 C   0  0  0  0  0  0  0  0  0  0  0  0
   -8.6410   -1.1600  -12.1180 C   0  0  0  0  0  0  0  0  0  0  0  0
   -7.7780   -2.1930  -11.7290 C   0  0  0  0  0  0  0  0  0  0  0  0
   -6.5270   -2.3180  -12.3190 C   0  0  0  0  0  0  0  0  0  0  0  0
   -6.1340   -1.4130  -13.3000 C   0  0  0  0  0  0  0  0  0  0  0  0
   -6.9820   -0.3680  -13.7190 C   0  0  0  0  0  0  0  0  0  0  0  0
   -6.5680    0.5480  -14.7230 N   0  0  0  0  0  0  0  0  0  0  0  0
   -6.5110   -0.0540  -16.0650 C   0  0  0  0  0  0  0  0  0  0  0  0
   -6.5080    1.0520  -17.1210 C   0  0  0  0  0  0  0  0  0  0  0  0
   -5.4110    2.0980  -16.8830 C   0  0  0  0  0  0  0  0  0  0  0  0
   -4.0770    1.5870  -17.2270 N   0  0  0  0  0  0  0  0  0  0  0  0
   -5.4520    2.6020  -15.4370 C   0  0  0  0  0  0  0  0  0  0  0  0
   -5.4600    1.4620  -14.4200 C   0  0  0  0  0  0  0  0  0  0  0  0
   -8.2640   -0.2340  -13.1140 C   0  0  0  0  0  0  0  0  0  0  0  0
   -9.1120    0.7650  -13.4610 N   0  0  0  0  0  0  0  0  0  0  0  0
  -10.1370    7.5340  -20.0190 C   0  0  0  0  0  0  0  0  0  0  0  0
   -9.2480    6.5370  -20.5790 O   0  0  0  0  0  0  0  0  0  0  0  0
   -8.8200    6.1510  -19.2450 C   0  0  0  0  0  0  0  0  0  0  0  0
   -9.7727    7.4918  -16.5438 H   0  0  0  0  0  0  0  0  0  0  0  0
   -8.5401    8.1946  -17.6452 H   0  0  0  0  0  0  0  0  0  0  0  0
  -10.2166    8.8395  -17.6452 H   0  0  0  0  0  0  0  0  0  0  0  0
  -12.0652    6.3392  -18.7947 H   0  0  0  0  0  0  0  0  0  0  0  0
  -10.9481    4.9877  -18.4455 H   0  0  0  0  0  0  0  0  0  0  0  0
   -9.1081    4.7676  -16.5355 H   0  0  0  0  0  0  0  0  0  0  0  0
   -8.8381    2.8361  -14.9602 H   0  0  0  0  0  0  0  0  0  0  0  0
  -13.1952    5.3056  -15.2626 H   0  0  0  0  0  0  0  0  0  0  0  0
  -12.8549    1.6232  -12.0037 H   0  0  0  0  0  0  0  0  0  0  0  0
  -11.7334    0.1335  -11.4083 H   0  0  0  0  0  0  0  0  0  0  0  0
  -10.2065   -1.7292  -10.7319 H   0  0  0  0  0  0  0  0  0  0  0  0
   -8.0924   -2.9073  -10.9538 H   0  0  0  0  0  0  0  0  0  0  0  0
   -5.8499   -3.1288  -12.0121 H   0  0  0  0  0  0  0  0  0  0  0  0
   -5.1395   -1.5153  -13.7587 H   0  0  0  0  0  0  0  0  0  0  0  0
   -5.5934   -0.6532  -16.1592 H   0  0  0  0  0  0  0  0  0  0  0  0
   -7.3884   -0.7004  -16.2141 H   0  0  0  0  0  0  0  0  0  0  0  0
   -6.3491    0.5945  -18.1087 H   0  0  0  0  0  0  0  0  0  0  0  0
   -7.4771    1.5690  -17.0620 H   0  0  0  0  0  0  0  0  0  0  0  0
   -5.6121    2.9458  -17.5544 H   0  0  0  0  0  0  0  0  0  0  0  0
   -3.3690    2.2100  -16.8400 H   0  0  0  0  0  0  0  0  0  0  0  0
   -3.9380    1.5970  -18.2350 H   0  0  0  0  0  0  0  0  0  0  0  0
   -4.5665    3.2292  -15.2568 H   0  0  0  0  0  0  0  0  0  0  0  0
   -6.3842    3.1716  -15.3079 H   0  0  0  0  0  0  0  0  0  0  0  0
   -4.5073    0.9148  -14.4741 H   0  0  0  0  0  0  0  0  0  0  0  0
   -5.5881    1.8728  -13.4076 H   0  0  0  0  0  0  0  0  0  0  0  0
  -11.1615    7.4888  -20.4170 H   0  0  0  0  0  0  0  0  0  0  0  0
   -9.9259    8.6020  -20.1763 H   0  0  0  0  0  0  0  0  0  0  0  0
   -8.8554    5.0667  -19.0630 H   0  0  0  0  0  0  0  0  0  0  0  0
   -7.7890    6.3562  -18.9209 H   0  0  0  0  0  0  0  0  0  0  0  0
  1  2  1  0
  2  3  1  0
  3  4  1  0
  4  5  1  0
  5  6  2  0
  6  7  1  0
  7  8  2  0
  8  9  1  0
  9 10  2  0
  9 11  1  0
 11 12  2  0
 12 13  1  0
 13 14  1  0
 14 15  1  0
 15 16  2  0
 16 17  1  0
 17 18  2  0
 18 19  1  0
 19 20  2  0
 20 21  1  0
 21 22  1  0
 22 23  1  0
 23 24  1  0
 24 25  1  0
 25 26  1  0
 25 27  1  0
 27 28  1  0
 21 29  2  0
 29 30  1  0
  2 31  1  0
 31 32  1  0
 32 33  1  0
 33  2  1  0
 10  5  1  0
 30 14  2  0
 13  8  1  0
 29 17  1  0
 28 22  1  0
  1 34  1  0
  1 35  1  0
  1 36  1  0
  3 37  1  0
  3 38  1  0
  6 39  1  0
  7 40  1  0
 10 41  1  0
 12 42  1  0
 15 43  1  0
 16 44  1  0
 18 45  1  0
 19 46  1  0
 20 47  1  0
 23 48  1  0
 23 49  1  0
 24 50  1  0
 24 51  1  0
 25 52  1  0
 26 53  1  0
 26 54  1  0
 27 55  1  0
 27 56  1  0
 28 57  1  0
 28 58  1  0
 31 59  1  0
 31 60  1  0
 33 61  1  0
 33 62  1  0
M  END
>  <meeko>  (9) 
{"is_sidechain": false}

>  <vina_affinity_kcal_mol>  (9) 
-8.983

>  <pose_rank>  (9) 
9

$$$$
