
     RDKit          3D

 62 67  0  0  0  0  0  0  0  0999 V2000
  -41.1380  160.0060    0.0440 C   0  0  0  0  0  0  0  0  0  0  0  0
  -39.6430  159.8350    0.2770 C   0  0  0  0  0  0  0  0  0  0  0  0
  -38.8270  161.0840   -0.0580 C   0  0  0  0  0  0  0  0  0  0  0  0
  -39.6690  161.9940   -0.7710 O   0  0  0  0  0  0  0  0  0  0  0  0
  -39.2830  162.3390   -2.0370 C   0  0  0  0  0  0  0  0  0  0  0  0
  -39.2350  161.2760   -2.9380 C   0  0  0  0  0  0  0  0  0  0  0  0
  -38.8570  161.4520   -4.2760 C   0  0  0  0  0  0  0  0  0  0  0  0
  -38.5010  162.7450   -4.6910 C   0  0  0  0  0  0  0  0  0  0  0  0
  -38.5920  163.8280   -3.8120 C   0  0  0  0  0  0  0  0  0  0  0  0
  -38.9680  163.6280   -2.4720 C   0  0  0  0  0  0  0  0  0  0  0  0
  -38.3030  165.0100   -4.4350 N   0  0  0  0  0  0  0  0  0  0  0  0
  -38.0370  164.6760   -5.6760 C   0  0  0  0  0  0  0  0  0  0  0  0
  -38.0800  163.3140   -5.8910 N   0  0  0  0  0  0  0  0  0  0  0  0
  -37.7390  162.7190   -7.1410 C   0  0  0  0  0  0  0  0  0  0  0  0
  -37.7950  161.3510   -7.3290 C   0  0  0  0  0  0  0  0  0  0  0  0
  -37.4450  160.8410   -8.5750 C   0  0  0  0  0  0  0  0  0  0  0  0
  -37.0420  161.6980   -9.6040 C   0  0  0  0  0  0  0  0  0  0  0  0
  -36.6930  161.1770  -10.8610 C   0  0  0  0  0  0  0  0  0  0  0  0
  -36.2850  162.0200  -11.8860 C   0  0  0  0  0  0  0  0  0  0  0  0
  -36.2270  163.3890  -11.6570 C   0  0  0  0  0  0  0  0  0  0  0  0
  -36.5720  163.9340  -10.4050 C   0  0  0  0  0  0  0  0  0  0  0  0
  -36.4670  165.3540  -10.3180 N   0  0  0  0  0  0  0  0  0  0  0  0
  -37.7860  166.0040  -10.2600 C   0  0  0  0  0  0  0  0  0  0  0  0
  -37.5880  167.4760   -9.8970 C   0  0  0  0  0  0  0  0  0  0  0  0
  -36.6250  168.1940  -10.8510 C   0  0  0  0  0  0  0  0  0  0  0  0
  -37.2740  168.4760  -12.1360 N   0  0  0  0  0  0  0  0  0  0  0  0
  -35.3280  167.3910  -11.0240 C   0  0  0  0  0  0  0  0  0  0  0  0
  -35.5870  165.9200  -11.3540 C   0  0  0  0  0  0  0  0  0  0  0  0
  -36.9860  163.0850   -9.3470 C   0  0  0  0  0  0  0  0  0  0  0  0
  -37.3200  163.5640   -8.1210 N   0  0  0  0  0  0  0  0  0  0  0  0
  -39.2840  159.2390    1.6510 C   0  0  0  0  0  0  0  0  0  0  0  0
  -38.4920  158.1970    1.0310 O   0  0  0  0  0  0  0  0  0  0  0  0
  -39.0350  158.5320   -0.2710 C   0  0  0  0  0  0  0  0  0  0  0  0
  -41.6557  160.0652    1.0128 H   0  0  0  0  0  0  0  0  0  0  0  0
  -41.3171  160.9305   -0.5245 H   0  0  0  0  0  0  0  0  0  0  0  0
  -41.5212  159.1458   -0.5245 H   0  0  0  0  0  0  0  0  0  0  0  0
  -38.4715  161.5557    0.8700 H   0  0  0  0  0  0  0  0  0  0  0  0
  -37.9559  160.8134   -0.6728 H   0  0  0  0  0  0  0  0  0  0  0  0
  -39.5021  160.2680   -2.5878 H   0  0  0  0  0  0  0  0  0  0  0  0
  -38.8398  160.6051   -4.9777 H   0  0  0  0  0  0  0  0  0  0  0  0
  -39.0135  164.4772   -1.7743 H   0  0  0  0  0  0  0  0  0  0  0  0
  -37.8037  165.4072   -6.4640 H   0  0  0  0  0  0  0  0  0  0  0  0
  -38.1085  160.6822   -6.5138 H   0  0  0  0  0  0  0  0  0  0  0  0
  -37.4855  159.7561   -8.7521 H   0  0  0  0  0  0  0  0  0  0  0  0
  -36.7434  160.0920  -11.0347 H   0  0  0  0  0  0  0  0  0  0  0  0
  -36.0107  161.6084  -12.8685 H   0  0  0  0  0  0  0  0  0  0  0  0
  -35.9059  164.0593  -12.4680 H   0  0  0  0  0  0  0  0  0  0  0  0
  -38.2806  165.9270  -11.2395 H   0  0  0  0  0  0  0  0  0  0  0  0
  -38.4151  165.5115   -9.5039 H   0  0  0  0  0  0  0  0  0  0  0  0
  -38.5638  167.9824   -9.9342 H   0  0  0  0  0  0  0  0  0  0  0  0
  -37.1493  167.5147   -8.8890 H   0  0  0  0  0  0  0  0  0  0  0  0
  -36.3518  169.1624  -10.4065 H   0  0  0  0  0  0  0  0  0  0  0  0
  -37.0290  167.7690  -12.8270 H   0  0  0  0  0  0  0  0  0  0  0  0
  -36.9290  169.3600  -12.5100 H   0  0  0  0  0  0  0  0  0  0  0  0
  -34.7433  167.8379  -11.8415 H   0  0  0  0  0  0  0  0  0  0  0  0
  -34.7834  167.4275  -10.0690 H   0  0  0  0  0  0  0  0  0  0  0  0
  -36.0737  165.8409  -12.3373 H   0  0  0  0  0  0  0  0  0  0  0  0
  -34.6359  165.3680  -11.3818 H   0  0  0  0  0  0  0  0  0  0  0  0
  -38.7011  159.9181    2.2906 H   0  0  0  0  0  0  0  0  0  0  0  0
  -40.0861  158.9682    2.3534 H   0  0  0  0  0  0  0  0  0  0  0  0
  -38.2686  158.6907   -1.0439 H   0  0  0  0  0  0  0  0  0  0  0  0
  -39.6778  157.8095   -0.7952 H   0  0  0  0  0  0  0  0  0  0  0  0
  1  2  1  0
  2  3  1  0
  3  4  1  0
  4  5  1  0
  5  6  2  0
  6  7  1  0
  7  8  2  0
  8  9  1  0
  9 10  2  0
  9 11  1  0
 11 12  2  0
 12 13  1  0
 13 14  1  0
 14 15  1  0
 15 16  2  0
 16 17  1  0
 17 18  2  0
 18 19  1  0
 19 20  2  0
 20 21  1  0
 21 22  1  0
 22 23  1  0
 23 24  1  0
 24 25  1  0
 25 26  1  0
 25 27  1  0
 27 28  1  0
 21 29  2  0
 29 30  1  0
  2 31  1  0
 31 32  1  0
 32 33  1  0
 33  2  1  0
 10  5  1  0
 30 14  2  0
 13  8  1  0
 29 17  1  0
 28 22  1  0
  1 34  1  0
  1 35  1  0
  1 36  1  0
  3 37  1  0
  3 38  1  0
  6 39  1  0
  7 40  1  0
 10 41  1  0
 12 42  1  0
 15 43  1  0
 16 44  1  0
 18 45  1  0
 19 46  1  0
 20 47  1  0
 23 48  1  0
 23 49  1  0
 24 50  1  0
 24 51  1  0
 25 52  1  0
 26 53  1  0
 26 54  1  0
 27 55  1  0
 27 56  1  0
 28 57  1  0
 28 58  1  0
 31 59  1  0
 31 60  1  0
 33 61  1  0
 33 62  1  0
M  END
>  <meeko>  (1) 
{"is_sidechain": false}

>  <vina_affinity_kcal_mol>  (1) 
-9.889

>  <pose_rank>  (1) 
1

$$$$

     RDKit          3D

 62 67  0  0  0  0  0  0  0  0999 V2000
  -38.6300  158.3100    0.5460 C   0  0  0  0  0  0  0  0  0  0  0  0
  -38.9800  159.5290   -0.2970 C   0  0  0  0  0  0  0  0  0  0  0  0
  -38.2410  159.5780   -1.6340 C   0  0  0  0  0  0  0  0  0  0  0  0
  -39.1980  159.8170   -2.6690 O   0  0  0  0  0  0  0  0  0  0  0  0
  -39.0050  160.9190   -3.4570 C   0  0  0  0  0  0  0  0  0  0  0  0
  -38.8680  160.6420   -4.8170 C   0  0  0  0  0  0  0  0  0  0  0  0
  -38.6610  161.6540   -5.7640 C   0  0  0  0  0  0  0  0  0  0  0  0
  -38.5710  162.9760   -5.3010 C   0  0  0  0  0  0  0  0  0  0  0  0
  -38.7540  163.2730   -3.9480 C   0  0  0  0  0  0  0  0  0  0  0  0
  -38.9550  162.2410   -3.0130 C   0  0  0  0  0  0  0  0  0  0  0  0
  -38.7310  164.6210   -3.7180 N   0  0  0  0  0  0  0  0  0  0  0  0
  -38.5380  165.1560   -4.9000 C   0  0  0  0  0  0  0  0  0  0  0  0
  -38.3730  164.2180   -5.8990 N   0  0  0  0  0  0  0  0  0  0  0  0
  -38.0640  164.5710   -7.2460 C   0  0  0  0  0  0  0  0  0  0  0  0
  -38.0480  165.8890   -7.6610 C   0  0  0  0  0  0  0  0  0  0  0  0
  -37.7400  166.1580   -8.9910 C   0  0  0  0  0  0  0  0  0  0  0  0
  -37.4620  165.1140   -9.8790 C   0  0  0  0  0  0  0  0  0  0  0  0
  -37.1490  165.3930  -11.2200 C   0  0  0  0  0  0  0  0  0  0  0  0
  -36.8770  164.3620  -12.1100 C   0  0  0  0  0  0  0  0  0  0  0  0
  -36.9160  163.0490  -11.6600 C   0  0  0  0  0  0  0  0  0  0  0  0
  -37.2280  162.7460  -10.3210 C   0  0  0  0  0  0  0  0  0  0  0  0
  -37.2280  161.3540  -10.0040 N   0  0  0  0  0  0  0  0  0  0  0  0
  -36.2850  161.0350   -8.9190 C   0  0  0  0  0  0  0  0  0  0  0  0
  -36.5400  159.5990   -8.4600 C   0  0  0  0  0  0  0  0  0  0  0  0
  -36.4690  158.5900   -9.6130 C   0  0  0  0  0  0  0  0  0  0  0  0
  -35.0770  158.3410  -10.0060 N   0  0  0  0  0  0  0  0  0  0  0  0
  -37.3290  159.0520  -10.7980 C   0  0  0  0  0  0  0  0  0  0  0  0
  -37.0540  160.5040  -11.1920 C   0  0  0  0  0  0  0  0  0  0  0  0
  -37.5120  163.7870   -9.4010 C   0  0  0  0  0  0  0  0  0  0  0  0
  -37.8260  163.5420   -8.1020 N   0  0  0  0  0  0  0  0  0  0  0  0
  -40.4930  159.7800   -0.4430 C   0  0  0  0  0  0  0  0  0  0  0  0
  -40.3470  161.1440    0.0230 O   0  0  0  0  0  0  0  0  0  0  0  0
  -38.9900  160.8710    0.4560 C   0  0  0  0  0  0  0  0  0  0  0  0
  -38.7042  158.5683    1.6127 H   0  0  0  0  0  0  0  0  0  0  0  0
  -39.3298  157.4927    0.3171 H   0  0  0  0  0  0  0  0  0  0  0  0
  -37.6032  157.9885    0.3171 H   0  0  0  0  0  0  0  0  0  0  0  0
  -37.4991  160.3900   -1.6191 H   0  0  0  0  0  0  0  0  0  0  0  0
  -37.7196  158.6262   -1.8132 H   0  0  0  0  0  0  0  0  0  0  0  0
  -38.9241  159.5973   -5.1567 H   0  0  0  0  0  0  0  0  0  0  0  0
  -38.5720  161.4200   -6.8351 H   0  0  0  0  0  0  0  0  0  0  0  0
  -39.0714  162.4736   -1.9442 H   0  0  0  0  0  0  0  0  0  0  0  0
  -38.5105  166.2413   -5.0770 H   0  0  0  0  0  0  0  0  0  0  0  0
  -38.2730  166.7046   -6.9580 H   0  0  0  0  0  0  0  0  0  0  0  0
  -37.7150  167.1987   -9.3463 H   0  0  0  0  0  0  0  0  0  0  0  0
  -37.1191  166.4362  -11.5677 H   0  0  0  0  0  0  0  0  0  0  0  0
  -36.6334  164.5832  -13.1596 H   0  0  0  0  0  0  0  0  0  0  0  0
  -36.6992  162.2307  -12.3624 H   0  0  0  0  0  0  0  0  0  0  0  0
  -35.2522  161.1293   -9.2856 H   0  0  0  0  0  0  0  0  0  0  0  0
  -36.4288  161.7301   -8.0786 H   0  0  0  0  0  0  0  0  0  0  0  0
  -35.7829  159.3295   -7.7089 H   0  0  0  0  0  0  0  0  0  0  0  0
  -37.5573  159.5580   -8.0435 H   0  0  0  0  0  0  0  0  0  0  0  0
  -36.8838  157.6329   -9.2639 H   0  0  0  0  0  0  0  0  0  0  0  0
  -34.4330  158.7530   -9.3330 H   0  0  0  0  0  0  0  0  0  0  0  0
  -34.8830  158.8020  -10.8950 H   0  0  0  0  0  0  0  0  0  0  0  0
  -37.1150  158.4057  -11.6620 H   0  0  0  0  0  0  0  0  0  0  0  0
  -38.3833  158.9833  -10.4919 H   0  0  0  0  0  0  0  0  0  0  0  0
  -36.0241  160.5975  -11.5669 H   0  0  0  0  0  0  0  0  0  0  0  0
  -37.7511  160.8170  -11.9832 H   0  0  0  0  0  0  0  0  0  0  0  0
  -40.8580  159.7013   -1.4777 H   0  0  0  0  0  0  0  0  0  0  0  0
  -41.2070  159.1078    0.0554 H   0  0  0  0  0  0  0  0  0  0  0  0
  -38.2510  161.5949    0.0822 H   0  0  0  0  0  0  0  0  0  0  0  0
  -38.7454  160.8955    1.5282 H   0  0  0  0  0  0  0  0  0  0  0  0
  1  2  1  0
  2  3  1  0
  3  4  1  0
  4  5  1  0
  5  6  2  0
  6  7  1  0
  7  8  2  0
  8  9  1  0
  9 10  2  0
  9 11  1  0
 11 12  2  0
 12 13  1  0
 13 14  1  0
 14 15  1  0
 15 16  2  0
 16 17  1  0
 17 18  2  0
 18 19  1  0
 19 20  2  0
 20 21  1  0
 21 22  1  0
 22 23  1  0
 23 24  1  0
 24 25  1  0
 25 26  1  0
 25 27  1  0
 27 28  1  0
 21 29  2  0
 29 30  1  0
  2 31  1  0
 31 32  1  0
 32 33  1  0
 33  2  1  0
 10  5  1  0
 30 14  2  0
 13  8  1  0
 29 17  1  0
 28 22  1  0
  1 34  1  0
  1 35  1  0
  1 36  1  0
  3 37  1  0
  3 38  1  0
  6 39  1  0
  7 40  1  0
 10 41  1  0
 12 42  1  0
 15 43  1  0
 16 44  1  0
 18 45  1  0
 19 46  1  0
 20 47  1  0
 23 48  1  0
 23 49  1  0
 24 50  1  0
 24 51  1  0
 25 52  1  0
 26 53  1  0
 26 54  1  0
 27 55  1  0
 27 56  1  0
 28 57  1  0
 28 58  1  0
 31 59  1  0
 31 60  1  0
 33 61  1  0
 33 62  1  0
M  END
>  <meeko>  (2) 
{"is_sidechain": false}

>  <vina_affinity_kcal_mol>  (2) 
-9.64

>  <pose_rank>  (2) 
2

$$$$

     RDKit          3D

 62 67  0  0  0  0  0  0  0  0999 V2000
  -41.4680  158.3570    2.5360 C   0  0  0  0  0  0  0  0  0  0  0  0
  -40.3110  159.0220    1.8030 C   0  0  0  0  0  0  0  0  0  0  0  0
  -40.7340  160.2240    0.9590 C   0  0  0  0  0  0  0  0  0  0  0  0
  -39.5610  160.9660    0.6120 O   0  0  0  0  0  0  0  0  0  0  0  0
  -39.3630  161.2360   -0.7140 C   0  0  0  0  0  0  0  0  0  0  0  0
  -39.0000  162.5550   -0.9880 C   0  0  0  0  0  0  0  0  0  0  0  0
  -38.7610  163.0040   -2.2940 C   0  0  0  0  0  0  0  0  0  0  0  0
  -38.9200  162.0830   -3.3430 C   0  0  0  0  0  0  0  0  0  0  0  0
  -39.2360  160.7480   -3.0790 C   0  0  0  0  0  0  0  0  0  0  0  0
  -39.4770  160.3190   -1.7610 C   0  0  0  0  0  0  0  0  0  0  0  0
  -39.2420  159.9950   -4.2200 N   0  0  0  0  0  0  0  0  0  0  0  0
  -38.9380  160.8390   -5.1770 C   0  0  0  0  0  0  0  0  0  0  0  0
  -38.7860  162.1350   -4.7280 N   0  0  0  0  0  0  0  0  0  0  0  0
  -38.5410  163.2320   -5.6050 C   0  0  0  0  0  0  0  0  0  0  0  0
  -38.5420  164.5360   -5.1480 C   0  0  0  0  0  0  0  0  0  0  0  0
  -38.2980  165.5560   -6.0620 C   0  0  0  0  0  0  0  0  0  0  0  0
  -38.0640  165.2600   -7.4090 C   0  0  0  0  0  0  0  0  0  0  0  0
  -37.8150  166.2940   -8.3260 C   0  0  0  0  0  0  0  0  0  0  0  0
  -37.5880  166.0090   -9.6660 C   0  0  0  0  0  0  0  0  0  0  0  0
  -37.6080  164.6880  -10.0920 C   0  0  0  0  0  0  0  0  0  0  0  0
  -37.8550  163.6350   -9.1910 C   0  0  0  0  0  0  0  0  0  0  0  0
  -37.8420  162.3310   -9.7710 N   0  0  0  0  0  0  0  0  0  0  0  0
  -36.6590  161.5560   -9.3620 C   0  0  0  0  0  0  0  0  0  0  0  0
  -36.8550  160.1030   -9.7970 C   0  0  0  0  0  0  0  0  0  0  0  0
  -37.1510  159.9710  -11.2960 C   0  0  0  0  0  0  0  0  0  0  0  0
  -35.9330  160.1670  -12.0900 N   0  0  0  0  0  0  0  0  0  0  0  0
  -38.2740  160.9290  -11.7180 C   0  0  0  0  0  0  0  0  0  0  0  0
  -38.0410  162.3600  -11.2300 C   0  0  0  0  0  0  0  0  0  0  0  0
  -38.0940  163.9100   -7.8200 C   0  0  0  0  0  0  0  0  0  0  0  0
  -38.3450  162.9280   -6.9160 N   0  0  0  0  0  0  0  0  0  0  0  0
  -39.0900  159.3200    2.6940 C   0  0  0  0  0  0  0  0  0  0  0  0
  -38.2100  158.6170    1.7840 O   0  0  0  0  0  0  0  0  0  0  0  0
  -39.3500  158.0630    1.0790 C   0  0  0  0  0  0  0  0  0  0  0  0
  -41.3138  158.4457    3.6215 H   0  0  0  0  0  0  0  0  0  0  0  0
  -42.4106  158.8511    2.2580 H   0  0  0  0  0  0  0  0  0  0  0  0
  -41.5155  157.2938    2.2580 H   0  0  0  0  0  0  0  0  0  0  0  0
  -41.2385  159.8774    0.0450 H   0  0  0  0  0  0  0  0  0  0  0  0
  -41.4294  160.8594    1.5271 H   0  0  0  0  0  0  0  0  0  0  0  0
  -38.8983  163.2643   -0.1534 H   0  0  0  0  0  0  0  0  0  0  0  0
  -38.4589  164.0432   -2.4912 H   0  0  0  0  0  0  0  0  0  0  0  0
  -39.7520  159.2735   -1.5576 H   0  0  0  0  0  0  0  0  0  0  0  0
  -38.8166  160.5439   -6.2297 H   0  0  0  0  0  0  0  0  0  0  0  0
  -38.7310  164.7619   -4.0882 H   0  0  0  0  0  0  0  0  0  0  0  0
  -38.2890  166.6025   -5.7232 H   0  0  0  0  0  0  0  0  0  0  0  0
  -37.7996  167.3381   -7.9801 H   0  0  0  0  0  0  0  0  0  0  0  0
  -37.3944  166.8212  -10.3821 H   0  0  0  0  0  0  0  0  0  0  0  0
  -37.4276  164.4599  -11.1529 H   0  0  0  0  0  0  0  0  0  0  0  0
  -35.7604  161.9692   -9.8434 H   0  0  0  0  0  0  0  0  0  0  0  0
  -36.5337  161.6084   -8.2704 H   0  0  0  0  0  0  0  0  0  0  0  0
  -35.9382  159.5400   -9.5680 H   0  0  0  0  0  0  0  0  0  0  0  0
  -37.7225  159.7055   -9.2498 H   0  0  0  0  0  0  0  0  0  0  0  0
  -37.5048  158.9480  -11.4916 H   0  0  0  0  0  0  0  0  0  0  0  0
  -35.7720  159.3720  -12.7060 H   0  0  0  0  0  0  0  0  0  0  0  0
  -35.1220  160.2090  -11.4720 H   0  0  0  0  0  0  0  0  0  0  0  0
  -38.3361  160.9370  -12.8162 H   0  0  0  0  0  0  0  0  0  0  0  0
  -39.2079  160.5692  -11.2614 H   0  0  0  0  0  0  0  0  0  0  0  0
  -37.1478  162.7773  -11.7179 H   0  0  0  0  0  0  0  0  0  0  0  0
  -38.9087  162.9885  -11.4790 H   0  0  0  0  0  0  0  0  0  0  0  0
  -38.8629  160.3919    2.7913 H   0  0  0  0  0  0  0  0  0  0  0  0
  -39.1106  159.0390    3.7573 H   0  0  0  0  0  0  0  0  0  0  0  0
  -39.3127  158.2111   -0.0104 H   0  0  0  0  0  0  0  0  0  0  0  0
  -39.5357  156.9793    1.1110 H   0  0  0  0  0  0  0  0  0  0  0  0
  1  2  1  0
  2  3  1  0
  3  4  1  0
  4  5  1  0
  5  6  2  0
  6  7  1  0
  7  8  2  0
  8  9  1  0
  9 10  2  0
  9 11  1  0
 11 12  2  0
 12 13  1  0
 13 14  1  0
 14 15  1  0
 15 16  2  0
 16 17  1  0
 17 18  2  0
 18 19  1  0
 19 20  2  0
 20 21  1  0
 21 22  1  0
 22 23  1  0
 23 24  1  0
 24 25  1  0
 25 26  1  0
 25 27  1  0
 27 28  1  0
 21 29  2  0
 29 30  1  0
  2 31  1  0
 31 32  1  0
 32 33  1  0
 33  2  1  0
 10  5  1  0
 30 14  2  0
 13  8  1  0
 29 17  1  0
 28 22  1  0
  1 34  1  0
  1 35  1  0
  1 36  1  0
  3 37  1  0
  3 38  1  0
  6 39  1  0
  7 40  1  0
 10 41  1  0
 12 42  1  0
 15 43  1  0
 16 44  1  0
 18 45  1  0
 19 46  1  0
 20 47  1  0
 23 48  1  0
 23 49  1  0
 24 50  1  0
 24 51  1  0
 25 52  1  0
 26 53  1  0
 26 54  1  0
 27 55  1  0
 27 56  1  0
 28 57  1  0
 28 58  1  0
 31 59  1  0
 31 60  1  0
 33 61  1  0
 33 62  1  0
M  END
>  <meeko>  (3) 
{"is_sidechain": false}

>  <vina_affinity_kcal_mol>  (3) 
-9.164

>  <pose_rank>  (3) 
3

$$$$

     RDKit          3D

 62 67  0  0  0  0  0  0  0  0999 V2000
  -41.1450  160.6110   -0.1760 C   0  0  0  0  0  0  0  0  0  0  0  0
  -39.7170  160.0840   -0.1990 C   0  0  0  0  0  0  0  0  0  0  0  0
  -38.6840  161.1370   -0.6010 C   0  0  0  0  0  0  0  0  0  0  0  0
  -39.3680  162.2080   -1.2590 O   0  0  0  0  0  0  0  0  0  0  0  0
  -39.0730  162.4180   -2.5780 C   0  0  0  0  0  0  0  0  0  0  0  0
  -38.8540  163.7530   -2.9170 C   0  0  0  0  0  0  0  0  0  0  0  0
  -38.5440  164.1460   -4.2260 C   0  0  0  0  0  0  0  0  0  0  0  0
  -38.4790  163.1480   -5.2120 C   0  0  0  0  0  0  0  0  0  0  0  0
  -38.6490  161.8020   -4.8780 C   0  0  0  0  0  0  0  0  0  0  0  0
  -38.9650  161.4300   -3.5580 C   0  0  0  0  0  0  0  0  0  0  0  0
  -38.4460  160.9840   -5.9540 N   0  0  0  0  0  0  0  0  0  0  0  0
  -38.1560  161.7990   -6.9410 C   0  0  0  0  0  0  0  0  0  0  0  0
  -38.2140  163.1300   -6.5790 N   0  0  0  0  0  0  0  0  0  0  0  0
  -38.0230  164.1920   -7.5110 C   0  0  0  0  0  0  0  0  0  0  0  0
  -38.0220  165.5140   -7.1090 C   0  0  0  0  0  0  0  0  0  0  0  0
  -37.8320  166.4970   -8.0740 C   0  0  0  0  0  0  0  0  0  0  0  0
  -37.6530  166.1480   -9.4170 C   0  0  0  0  0  0  0  0  0  0  0  0
  -37.4590  167.1460  -10.3850 C   0  0  0  0  0  0  0  0  0  0  0  0
  -37.2860  166.8080  -11.7220 C   0  0  0  0  0  0  0  0  0  0  0  0
  -37.3070  165.4690  -12.0910 C   0  0  0  0  0  0  0  0  0  0  0  0
  -37.5000  164.4520  -11.1370 C   0  0  0  0  0  0  0  0  0  0  0  0
  -37.4950  163.1250  -11.6630 N   0  0  0  0  0  0  0  0  0  0  0  0
  -38.7230  162.3900  -11.3180 C   0  0  0  0  0  0  0  0  0  0  0  0
  -38.7610  161.0970  -12.1330 C   0  0  0  0  0  0  0  0  0  0  0  0
  -37.4990  160.2460  -11.9490 C   0  0  0  0  0  0  0  0  0  0  0  0
  -37.5100  159.5650  -10.6490 N   0  0  0  0  0  0  0  0  0  0  0  0
  -36.2340  161.0950  -12.1430 C   0  0  0  0  0  0  0  0  0  0  0  0
  -36.2650  162.3900  -11.3290 C   0  0  0  0  0  0  0  0  0  0  0  0
  -37.6830  164.7810   -9.7700 C   0  0  0  0  0  0  0  0  0  0  0  0
  -37.8810  163.8350   -8.8160 N   0  0  0  0  0  0  0  0  0  0  0  0
  -39.3130  159.3050    1.0670 C   0  0  0  0  0  0  0  0  0  0  0  0
  -38.8930  158.1670    0.2760 O   0  0  0  0  0  0  0  0  0  0  0  0
  -39.5260  158.7280   -0.9020 C   0  0  0  0  0  0  0  0  0  0  0  0
  -41.4742  160.7325    0.8665 H   0  0  0  0  0  0  0  0  0  0  0  0
  -41.1853  161.5832   -0.6889 H   0  0  0  0  0  0  0  0  0  0  0  0
  -41.8073  159.8980   -0.6889 H   0  0  0  0  0  0  0  0  0  0  0  0
  -38.1722  161.5173    0.2953 H   0  0  0  0  0  0  0  0  0  0  0  0
  -37.9343  160.6954   -1.2740 H   0  0  0  0  0  0  0  0  0  0  0  0
  -38.9268  164.5210   -2.1329 H   0  0  0  0  0  0  0  0  0  0  0  0
  -38.3577  165.2016   -4.4731 H   0  0  0  0  0  0  0  0  0  0  0  0
  -39.1251  160.3724   -3.3015 H   0  0  0  0  0  0  0  0  0  0  0  0
  -37.8936  161.4567   -7.9529 H   0  0  0  0  0  0  0  0  0  0  0  0
  -38.1678  165.7821   -6.0522 H   0  0  0  0  0  0  0  0  0  0  0  0
  -37.8224  167.5567   -7.7793 H   0  0  0  0  0  0  0  0  0  0  0  0
  -37.4438  168.2036  -10.0830 H   0  0  0  0  0  0  0  0  0  0  0  0
  -37.1342  167.5916  -12.4790 H   0  0  0  0  0  0  0  0  0  0  0  0
  -37.1703  165.1983  -13.1484 H   0  0  0  0  0  0  0  0  0  0  0  0
  -38.7232  162.1516  -10.2441 H   0  0  0  0  0  0  0  0  0  0  0  0
  -39.6062  163.0047  -11.5460 H   0  0  0  0  0  0  0  0  0  0  0  0
  -39.6333  160.5065  -11.8161 H   0  0  0  0  0  0  0  0  0  0  0  0
  -38.8231  161.3749  -13.1955 H   0  0  0  0  0  0  0  0  0  0  0  0
  -37.4906  159.4656  -12.7241 H   0  0  0  0  0  0  0  0  0  0  0  0
  -36.6230  159.6940  -10.1660 H   0  0  0  0  0  0  0  0  0  0  0  0
  -37.6080  158.5600  -10.7880 H   0  0  0  0  0  0  0  0  0  0  0  0
  -35.3610  160.5032  -11.8306 H   0  0  0  0  0  0  0  0  0  0  0  0
  -36.1772  161.3708  -13.2064 H   0  0  0  0  0  0  0  0  0  0  0  0
  -36.2551  162.1529  -10.2549 H   0  0  0  0  0  0  0  0  0  0  0  0
  -35.3839  163.0043  -11.5664 H   0  0  0  0  0  0  0  0  0  0  0  0
  -38.4972  159.7752    1.6357 H   0  0  0  0  0  0  0  0  0  0  0  0
  -40.0446  159.1649    1.8764 H   0  0  0  0  0  0  0  0  0  0  0  0
  -38.8664  158.7731   -1.7812 H   0  0  0  0  0  0  0  0  0  0  0  0
  -40.3931  158.2193   -1.3486 H   0  0  0  0  0  0  0  0  0  0  0  0
  1  2  1  0
  2  3  1  0
  3  4  1  0
  4  5  1  0
  5  6  2  0
  6  7  1  0
  7  8  2  0
  8  9  1  0
  9 10  2  0
  9 11  1  0
 11 12  2  0
 12 13  1  0
 13 14  1  0
 14 15  1  0
 15 16  2  0
 16 17  1  0
 17 18  2  0
 18 19  1  0
 19 20  2  0
 20 21  1  0
 21 22  1  0
 22 23  1  0
 23 24  1  0
 24 25  1  0
 25 26  1  0
 25 27  1  0
 27 28  1  0
 21 29  2  0
 29 30  1  0
  2 31  1  0
 31 32  1  0
 32 33  1  0
 33  2  1  0
 10  5  1  0
 30 14  2  0
 13  8  1  0
 29 17  1  0
 28 22  1  0
  1 34  1  0
  1 35  1  0
  1 36  1  0
  3 37  1  0
  3 38  1  0
  6 39  1  0
  7 40  1  0
 10 41  1  0
 12 42  1  0
 15 43  1  0
 16 44  1  0
 18 45  1  0
 19 46  1  0
 20 47  1  0
 23 48  1  0
 23 49  1  0
 24 50  1  0
 24 51  1  0
 25 52  1  0
 26 53  1  0
 26 54  1  0
 27 55  1  0
 27 56  1  0
 28 57  1  0
 28 58  1  0
 31 59  1  0
 31 60  1  0
 33 61  1  0
 33 62  1  0
M  END
>  <meeko>  (4) 
{"is_sidechain": false}

>  <vina_affinity_kcal_mol>  (4) 
-8.959

>  <pose_rank>  (4) 
4

$$$$

     RDKit          3D

 62 67  0  0  0  0  0  0  0  0999 V2000
  -35.8290  157.6590    6.6190 C   0  0  0  0  0  0  0  0  0  0  0  0
  -34.7570  156.6620    6.2010 C   0  0  0  0  0  0  0  0  0  0  0  0
  -34.6220  155.4750    7.1550 C   0  0  0  0  0  0  0  0  0  0  0  0
  -35.9320  154.9750    7.4380 O   0  0  0  0  0  0  0  0  0  0  0  0
  -36.2340  153.7220    6.9770 C   0  0  0  0  0  0  0  0  0  0  0  0
  -37.2620  153.6840    6.0350 C   0  0  0  0  0  0  0  0  0  0  0  0
  -37.7000  152.4820    5.4620 C   0  0  0  0  0  0  0  0  0  0  0  0
  -37.0830  151.2930    5.8820 C   0  0  0  0  0  0  0  0  0  0  0  0
  -36.0190  151.3220    6.7880 C   0  0  0  0  0  0  0  0  0  0  0  0
  -35.5990  152.5380    7.3550 C   0  0  0  0  0  0  0  0  0  0  0  0
  -35.4910  150.0760    6.9860 N   0  0  0  0  0  0  0  0  0  0  0  0
  -36.2070  149.2860    6.2220 C   0  0  0  0  0  0  0  0  0  0  0  0
  -37.2280  149.9440    5.5670 N   0  0  0  0  0  0  0  0  0  0  0  0
  -38.1850  149.2690    4.7540 C   0  0  0  0  0  0  0  0  0  0  0  0
  -39.5100  149.1700    5.1300 C   0  0  0  0  0  0  0  0  0  0  0  0
  -40.3870  148.4940    4.2880 C   0  0  0  0  0  0  0  0  0  0  0  0
  -39.9280  147.9270    3.0950 C   0  0  0  0  0  0  0  0  0  0  0  0
  -40.8190  147.2480    2.2470 C   0  0  0  0  0  0  0  0  0  0  0  0
  -40.3700  146.6770    1.0640 C   0  0  0  0  0  0  0  0  0  0  0  0
  -39.0280  146.7840    0.7240 C   0  0  0  0  0  0  0  0  0  0  0  0
  -38.1160  147.4590    1.5580 C   0  0  0  0  0  0  0  0  0  0  0  0
  -36.7720  147.4910    1.0800 N   0  0  0  0  0  0  0  0  0  0  0  0
  -36.4800  148.7260    0.3340 C   0  0  0  0  0  0  0  0  0  0  0  0
  -34.9710  148.8060    0.0960 C   0  0  0  0  0  0  0  0  0  0  0  0
  -34.4190  147.5570   -0.6020 C   0  0  0  0  0  0  0  0  0  0  0  0
  -34.7630  147.5590   -2.0280 N   0  0  0  0  0  0  0  0  0  0  0  0
  -34.8950  146.2790    0.1040 C   0  0  0  0  0  0  0  0  0  0  0  0
  -36.4060  146.2700    0.3440 C   0  0  0  0  0  0  0  0  0  0  0  0
  -38.5580  148.0440    2.7730 C   0  0  0  0  0  0  0  0  0  0  0  0
  -37.7150  148.6970    3.6130 N   0  0  0  0  0  0  0  0  0  0  0  0
  -34.8380  156.2330    4.7240 C   0  0  0  0  0  0  0  0  0  0  0  0
  -33.4520  156.5930    4.5060 O   0  0  0  0  0  0  0  0  0  0  0  0
  -33.4100  157.2790    5.7840 C   0  0  0  0  0  0  0  0  0  0  0  0
  -35.8787  157.7052    7.7169 H   0  0  0  0  0  0  0  0  0  0  0  0
  -35.5798  158.6537    6.2211 H   0  0  0  0  0  0  0  0  0  0  0  0
  -36.8031  157.3384    6.2211 H   0  0  0  0  0  0  0  0  0  0  0  0
  -34.0166  154.6864    6.6842 H   0  0  0  0  0  0  0  0  0  0  0  0
  -34.1277  155.7909    8.0855 H   0  0  0  0  0  0  0  0  0  0  0  0
  -37.7435  154.6257    5.7326 H   0  0  0  0  0  0  0  0  0  0  0  0
  -38.5009  152.4708    4.7080 H   0  0  0  0  0  0  0  0  0  0  0  0
  -34.7792  152.5561    8.0882 H   0  0  0  0  0  0  0  0  0  0  0  0
  -36.0133  148.2085    6.1143 H   0  0  0  0  0  0  0  0  0  0  0  0
  -39.8633  149.6147    6.0720 H   0  0  0  0  0  0  0  0  0  0  0  0
  -41.4485  148.4049    4.5624 H   0  0  0  0  0  0  0  0  0  0  0  0
  -41.8809  147.1682    2.5227 H   0  0  0  0  0  0  0  0  0  0  0  0
  -41.0701  146.1453    0.4028 H   0  0  0  0  0  0  0  0  0  0  0  0
  -38.6708  146.3334   -0.2137 H   0  0  0  0  0  0  0  0  0  0  0  0
  -37.0072  148.7095   -0.6313 H   0  0  0  0  0  0  0  0  0  0  0  0
  -36.8171  149.6013    0.9087 H   0  0  0  0  0  0  0  0  0  0  0  0
  -34.7591  149.6838   -0.5322 H   0  0  0  0  0  0  0  0  0  0  0  0
  -34.4816  148.8836    1.0781 H   0  0  0  0  0  0  0  0  0  0  0  0
  -33.3214  147.5769   -0.5325 H   0  0  0  0  0  0  0  0  0  0  0  0
  -35.7720  147.6010   -2.1560 H   0  0  0  0  0  0  0  0  0  0  0  0
  -34.4650  146.6820   -2.4560 H   0  0  0  0  0  0  0  0  0  0  0  0
  -34.6318  145.4123   -0.5202 H   0  0  0  0  0  0  0  0  0  0  0  0
  -34.4005  146.2356    1.0856 H   0  0  0  0  0  0  0  0  0  0  0  0
  -36.9343  146.2464   -0.6206 H   0  0  0  0  0  0  0  0  0  0  0  0
  -36.6886  145.3810    0.9269 H   0  0  0  0  0  0  0  0  0  0  0  0
  -35.0452  155.1618    4.5841 H   0  0  0  0  0  0  0  0  0  0  0  0
  -35.6188  156.6579    4.0761 H   0  0  0  0  0  0  0  0  0  0  0  0
  -32.5668  156.9766    6.4224 H   0  0  0  0  0  0  0  0  0  0  0  0
  -33.2792  158.3708    5.8119 H   0  0  0  0  0  0  0  0  0  0  0  0
  1  2  1  0
  2  3  1  0
  3  4  1  0
  4  5  1  0
  5  6  2  0
  6  7  1  0
  7  8  2  0
  8  9  1  0
  9 10  2  0
  9 11  1  0
 11 12  2  0
 12 13  1  0
 13 14  1  0
 14 15  1  0
 15 16  2  0
 16 17  1  0
 17 18  2  0
 18 19  1  0
 19 20  2  0
 20 21  1  0
 21 22  1  0
 22 23  1  0
 23 24  1  0
 24 25  1  0
 25 26  1  0
 25 27  1  0
 27 28  1  0
 21 29  2  0
 29 30  1  0
  2 31  1  0
 31 32  1  0
 32 33  1  0
 33  2  1  0
 10  5  1  0
 30 14  2  0
 13  8  1  0
 29 17  1  0
 28 22  1  0
  1 34  1  0
  1 35  1  0
  1 36  1  0
  3 37  1  0
  3 38  1  0
  6 39  1  0
  7 40  1  0
 10 41  1  0
 12 42  1  0
 15 43  1  0
 16 44  1  0
 18 45  1  0
 19 46  1  0
 20 47  1  0
 23 48  1  0
 23 49  1  0
 24 50  1  0
 24 51  1  0
 25 52  1  0
 26 53  1  0
 26 54  1  0
 27 55  1  0
 27 56  1  0
 28 57  1  0
 28 58  1  0
 31 59  1  0
 31 60  1  0
 33 61  1  0
 33 62  1  0
M  END
>  <meeko>  (5) 
{"is_sidechain": false}

>  <vina_affinity_kcal_mol>  (5) 
-8.596

>  <pose_rank>  (5) 
5

$$$$

     RDKit          3D

 62 67  0  0  0  0  0  0  0  0999 V2000
  -35.7570  157.6340    6.7810 C   0  0  0  0  0  0  0  0  0  0  0  0
  -34.7330  156.6550    6.2240 C   0  0  0  0  0  0  0  0  0  0  0  0
  -34.5220  155.4250    7.1060 C   0  0  0  0  0  0  0  0  0  0  0  0
  -35.8040  154.8750    7.4240 O   0  0  0  0  0  0  0  0  0  0  0  0
  -36.1290  153.6770    6.8480 C   0  0  0  0  0  0  0  0  0  0  0  0
  -35.1630  152.6820    6.9970 C   0  0  0  0  0  0  0  0  0  0  0  0
  -35.3340  151.3960    6.4660 C   0  0  0  0  0  0  0  0  0  0  0  0
  -36.5120  151.1340    5.7490 C   0  0  0  0  0  0  0  0  0  0  0  0
  -37.5090  152.1060    5.6340 C   0  0  0  0  0  0  0  0  0  0  0  0
  -37.3160  153.3920    6.1700 C   0  0  0  0  0  0  0  0  0  0  0  0
  -38.6150  151.6220    4.9920 N   0  0  0  0  0  0  0  0  0  0  0  0
  -38.3170  150.3760    4.7100 C   0  0  0  0  0  0  0  0  0  0  0  0
  -37.0370  150.0260    5.0870 N   0  0  0  0  0  0  0  0  0  0  0  0
  -36.4700  148.7500    4.8010 C   0  0  0  0  0  0  0  0  0  0  0  0
  -36.0320  147.9120    5.8090 C   0  0  0  0  0  0  0  0  0  0  0  0
  -35.4870  146.6820    5.4550 C   0  0  0  0  0  0  0  0  0  0  0  0
  -35.3820  146.3140    4.1100 C   0  0  0  0  0  0  0  0  0  0  0  0
  -34.8330  145.0700    3.7590 C   0  0  0  0  0  0  0  0  0  0  0  0
  -34.7200  144.6990    2.4250 C   0  0  0  0  0  0  0  0  0  0  0  0
  -35.1570  145.5730    1.4390 C   0  0  0  0  0  0  0  0  0  0  0  0
  -35.7110  146.8250    1.7660 C   0  0  0  0  0  0  0  0  0  0  0  0
  -36.1180  147.6140    0.6490 N   0  0  0  0  0  0  0  0  0  0  0  0
  -36.6410  146.7870   -0.4500 C   0  0  0  0  0  0  0  0  0  0  0  0
  -37.2990  147.7050   -1.4810 C   0  0  0  0  0  0  0  0  0  0  0  0
  -36.3530  148.8060   -1.9770 C   0  0  0  0  0  0  0  0  0  0  0  0
  -35.3650  148.2640   -2.9170 N   0  0  0  0  0  0  0  0  0  0  0  0
  -35.6890  149.5300   -0.7960 C   0  0  0  0  0  0  0  0  0  0  0  0
  -35.0770  148.5610    0.2170 C   0  0  0  0  0  0  0  0  0  0  0  0
  -35.8290  147.2210    3.1240 C   0  0  0  0  0  0  0  0  0  0  0  0
  -36.3480  148.4210    3.4870 N   0  0  0  0  0  0  0  0  0  0  0  0
  -34.9460  156.2960    4.7420 C   0  0  0  0  0  0  0  0  0  0  0  0
  -33.5830  156.6620    4.4190 O   0  0  0  0  0  0  0  0  0  0  0  0
  -33.4230  157.2870    5.7190 C   0  0  0  0  0  0  0  0  0  0  0  0
  -35.7294  157.6076    7.8803 H   0  0  0  0  0  0  0  0  0  0  0  0
  -35.5201  158.6501    6.4326 H   0  0  0  0  0  0  0  0  0  0  0  0
  -36.7615  157.3517    6.4326 H   0  0  0  0  0  0  0  0  0  0  0  0
  -33.9207  154.6788    6.5660 H   0  0  0  0  0  0  0  0  0  0  0  0
  -33.9910  155.7060    8.0275 H   0  0  0  0  0  0  0  0  0  0  0  0
  -34.2393  152.9134    7.5477 H   0  0  0  0  0  0  0  0  0  0  0  0
  -34.5698  150.6174    6.6066 H   0  0  0  0  0  0  0  0  0  0  0  0
  -38.0911  154.1642    6.0564 H   0  0  0  0  0  0  0  0  0  0  0  0
  -39.0166  149.6810    4.2225 H   0  0  0  0  0  0  0  0  0  0  0  0
  -36.1123  148.2102    6.8648 H   0  0  0  0  0  0  0  0  0  0  0  0
  -35.1362  145.9942    6.2385 H   0  0  0  0  0  0  0  0  0  0  0  0
  -34.4896  144.3836    4.5470 H   0  0  0  0  0  0  0  0  0  0  0  0
  -34.2893  143.7240    2.1532 H   0  0  0  0  0  0  0  0  0  0  0  0
  -35.0687  145.2816    0.3820 H   0  0  0  0  0  0  0  0  0  0  0  0
  -35.8163  146.2319   -0.9209 H   0  0  0  0  0  0  0  0  0  0  0  0
  -37.3781  146.0687   -0.0618 H   0  0  0  0  0  0  0  0  0  0  0  0
  -37.6160  147.0982   -2.3420 H   0  0  0  0  0  0  0  0  0  0  0  0
  -38.1550  148.1948   -0.9938 H   0  0  0  0  0  0  0  0  0  0  0  0
  -36.9461  149.5531   -2.5249 H   0  0  0  0  0  0  0  0  0  0  0  0
  -34.6570  148.9620   -3.1380 H   0  0  0  0  0  0  0  0  0  0  0  0
  -35.8190  148.0380   -3.8020 H   0  0  0  0  0  0  0  0  0  0  0  0
  -34.8934  150.1826   -1.1848 H   0  0  0  0  0  0  0  0  0  0  0  0
  -36.4686  150.1070   -0.2771 H   0  0  0  0  0  0  0  0  0  0  0  0
  -34.2469  148.0113   -0.2507 H   0  0  0  0  0  0  0  0  0  0  0  0
  -34.6919  149.1175    1.0842 H   0  0  0  0  0  0  0  0  0  0  0  0
  -35.1719  155.2330    4.5714 H   0  0  0  0  0  0  0  0  0  0  0  0
  -35.7779  156.7530    4.1861 H   0  0  0  0  0  0  0  0  0  0  0  0
  -32.5291  156.9520    6.2655 H   0  0  0  0  0  0  0  0  0  0  0  0
  -33.2819  158.3758    5.7864 H   0  0  0  0  0  0  0  0  0  0  0  0
  1  2  1  0
  2  3  1  0
  3  4  1  0
  4  5  1  0
  5  6  2  0
  6  7  1  0
  7  8  2  0
  8  9  1  0
  9 10  2  0
  9 11  1  0
 11 12  2  0
 12 13  1  0
 13 14  1  0
 14 15  1  0
 15 16  2  0
 16 17  1  0
 17 18  2  0
 18 19  1  0
 19 20  2  0
 20 21  1  0
 21 22  1  0
 22 23  1  0
 23 24  1  0
 24 25  1  0
 25 26  1  0
 25 27  1  0
 27 28  1  0
 21 29  2  0
 29 30  1  0
  2 31  1  0
 31 32  1  0
 32 33  1  0
 33  2  1  0
 10  5  1  0
 30 14  2  0
 13  8  1  0
 29 17  1  0
 28 22  1  0
  1 34  1  0
  1 35  1  0
  1 36  1  0
  3 37  1  0
  3 38  1  0
  6 39  1  0
  7 40  1  0
 10 41  1  0
 12 42  1  0
 15 43  1  0
 16 44  1  0
 18 45  1  0
 19 46  1  0
 20 47  1  0
 23 48  1  0
 23 49  1  0
 24 50  1  0
 24 51  1  0
 25 52  1  0
 26 53  1  0
 26 54  1  0
 27 55  1  0
 27 56  1  0
 28 57  1  0
 28 58  1  0
 31 59  1  0
 31 60  1  0
 33 61  1  0
 33 62  1  0
M  END
>  <meeko>  (6) 
{"is_sidechain": false}

>  <vina_affinity_kcal_mol>  (6) 
-8.412

>  <pose_rank>  (6) 
6

$$$$

     RDKit          3D

 62 67  0  0  0  0  0  0  0  0999 V2000
  -40.3700  158.3980    2.4330 C   0  0  0  0  0  0  0  0  0  0  0  0
  -39.1560  158.7590    1.5880 C   0  0  0  0  0  0  0  0  0  0  0  0
  -37.8580  158.1190    2.0800 C   0  0  0  0  0  0  0  0  0  0  0  0
  -37.9370  157.9790    3.5020 O   0  0  0  0  0  0  0  0  0  0  0  0
  -37.2290  156.9530    4.0680 C   0  0  0  0  0  0  0  0  0  0  0  0
  -37.9820  155.8100    4.3350 C   0  0  0  0  0  0  0  0  0  0  0  0
  -37.4150  154.6670    4.9160 C   0  0  0  0  0  0  0  0  0  0  0  0
  -36.0520  154.7080    5.2490 C   0  0  0  0  0  0  0  0  0  0  0  0
  -35.2760  155.8290    4.9430 C   0  0  0  0  0  0  0  0  0  0  0  0
  -35.8660  156.9680    4.3640 C   0  0  0  0  0  0  0  0  0  0  0  0
  -33.9590  155.6310    5.2510 N   0  0  0  0  0  0  0  0  0  0  0  0
  -33.9110  154.4150    5.7400 C   0  0  0  0  0  0  0  0  0  0  0  0
  -35.1500  153.8150    5.8240 N   0  0  0  0  0  0  0  0  0  0  0  0
  -35.3480  152.5280    6.4050 C   0  0  0  0  0  0  0  0  0  0  0  0
  -34.6730  152.1410    7.5470 C   0  0  0  0  0  0  0  0  0  0  0  0
  -34.9140  150.8690    8.0560 C   0  0  0  0  0  0  0  0  0  0  0  0
  -35.8140  150.0080    7.4180 C   0  0  0  0  0  0  0  0  0  0  0  0
  -36.0550  148.7270    7.9390 C   0  0  0  0  0  0  0  0  0  0  0  0
  -36.9420  147.8640    7.3090 C   0  0  0  0  0  0  0  0  0  0  0  0
  -37.5920  148.2830    6.1550 C   0  0  0  0  0  0  0  0  0  0  0  0
  -37.3660  149.5630    5.6150 C   0  0  0  0  0  0  0  0  0  0  0  0
  -38.1050  149.8540    4.4290 N   0  0  0  0  0  0  0  0  0  0  0  0
  -38.7710  151.1660    4.5010 C   0  0  0  0  0  0  0  0  0  0  0  0
  -39.3040  151.5180    3.1120 C   0  0  0  0  0  0  0  0  0  0  0  0
  -40.2200  150.4280    2.5390 C   0  0  0  0  0  0  0  0  0  0  0  0
  -41.5380  150.4600    3.1830 N   0  0  0  0  0  0  0  0  0  0  0  0
  -39.5590  149.0460    2.6470 C   0  0  0  0  0  0  0  0  0  0  0  0
  -39.0160  148.7620    4.0480 C   0  0  0  0  0  0  0  0  0  0  0  0
  -36.4590  150.4540    6.2440 C   0  0  0  0  0  0  0  0  0  0  0  0
  -36.2030  151.6940    5.7550 N   0  0  0  0  0  0  0  0  0  0  0  0
  -39.3690  158.5840    0.0730 C   0  0  0  0  0  0  0  0  0  0  0  0
  -38.9470  159.9460   -0.1790 O   0  0  0  0  0  0  0  0  0  0  0  0
  -39.0170  160.2510    1.2370 C   0  0  0  0  0  0  0  0  0  0  0  0
  -40.1107  158.4751    3.4992 H   0  0  0  0  0  0  0  0  0  0  0  0
  -41.1942  159.0899    2.2051 H   0  0  0  0  0  0  0  0  0  0  0  0
  -40.6822  157.3681    2.2051 H   0  0  0  0  0  0  0  0  0  0  0  0
  -37.7315  157.1300    1.6153 H   0  0  0  0  0  0  0  0  0  0  0  0
  -36.9981  158.7489    1.8083 H   0  0  0  0  0  0  0  0  0  0  0  0
  -39.0526  155.8051    4.0823 H   0  0  0  0  0  0  0  0  0  0  0  0
  -38.0188  153.7671    5.1048 H   0  0  0  0  0  0  0  0  0  0  0  0
  -35.2594  157.8597    4.1474 H   0  0  0  0  0  0  0  0  0  0  0  0
  -32.9775  153.9236    6.0515 H   0  0  0  0  0  0  0  0  0  0  0  0
  -33.9634  152.8212    8.0408 H   0  0  0  0  0  0  0  0  0  0  0  0
  -34.3934  150.5376    8.9666 H   0  0  0  0  0  0  0  0  0  0  0  0
  -35.5369  148.4041    8.8540 H   0  0  0  0  0  0  0  0  0  0  0  0
  -37.1277  146.8603    7.7190 H   0  0  0  0  0  0  0  0  0  0  0  0
  -38.2960  147.6022    5.6542 H   0  0  0  0  0  0  0  0  0  0  0  0
  -39.6046  151.1199    5.2173 H   0  0  0  0  0  0  0  0  0  0  0  0
  -38.0567  151.9328    4.8354 H   0  0  0  0  0  0  0  0  0  0  0  0
  -39.8732  152.4568    3.1803 H   0  0  0  0  0  0  0  0  0  0  0  0
  -38.4402  151.6162    2.4381 H   0  0  0  0  0  0  0  0  0  0  0  0
  -40.3763  150.6314    1.4693 H   0  0  0  0  0  0  0  0  0  0  0  0
  -41.9280  149.5220    3.2520 H   0  0  0  0  0  0  0  0  0  0  0  0
  -42.1910  150.9900    2.6060 H   0  0  0  0  0  0  0  0  0  0  0  0
  -40.3053  148.2779    2.3960 H   0  0  0  0  0  0  0  0  0  0  0  0
  -38.7083  149.0281    1.9499 H   0  0  0  0  0  0  0  0  0  0  0  0
  -39.8490  148.7074    4.7643 H   0  0  0  0  0  0  0  0  0  0  0  0
  -38.4768  147.8032    4.0548 H   0  0  0  0  0  0  0  0  0  0  0  0
  -38.7152  157.8255   -0.3822 H   0  0  0  0  0  0  0  0  0  0  0  0
  -40.3427  158.2372   -0.3034 H   0  0  0  0  0  0  0  0  0  0  0  0
  -38.1044  160.7177    1.6361 H   0  0  0  0  0  0  0  0  0  0  0  0
  -39.7655  160.9690    1.6034 H   0  0  0  0  0  0  0  0  0  0  0  0
  1  2  1  0
  2  3  1  0
  3  4  1  0
  4  5  1  0
  5  6  2  0
  6  7  1  0
  7  8  2  0
  8  9  1  0
  9 10  2  0
  9 11  1  0
 11 12  2  0
 12 13  1  0
 13 14  1  0
 14 15  1  0
 15 16  2  0
 16 17  1  0
 17 18  2  0
 18 19  1  0
 19 20  2  0
 20 21  1  0
 21 22  1  0
 22 23  1  0
 23 24  1  0
 24 25  1  0
 25 26  1  0
 25 27  1  0
 27 28  1  0
 21 29  2  0
 29 30  1  0
  2 31  1  0
 31 32  1  0
 32 33  1  0
 33  2  1  0
 10  5  1  0
 30 14  2  0
 13  8  1  0
 29 17  1  0
 28 22  1  0
  1 34  1  0
  1 35  1  0
  1 36  1  0
  3 37  1  0
  3 38  1  0
  6 39  1  0
  7 40  1  0
 10 41  1  0
 12 42  1  0
 15 43  1  0
 16 44  1  0
 18 45  1  0
 19 46  1  0
 20 47  1  0
 23 48  1  0
 23 49  1  0
 24 50  1  0
 24 51  1  0
 25 52  1  0
 26 53  1  0
 26 54  1  0
 27 55  1  0
 27 56  1  0
 28 57  1  0
 28 58  1  0
 31 59  1  0
 31 60  1  0
 33 61  1  0
 33 62  1  0
M  END
>  <meeko>  (7) 
{"is_sidechain": false}

>  <vina_affinity_kcal_mol>  (7) 
-8.3

>  <pose_rank>  (7) 
7

$$$$

     RDKit          3D

 62 67  0  0  0  0  0  0  0  0999 V2000
  -43.4330  147.1300   -5.0240 C   0  0  0  0  0  0  0  0  0  0  0  0
  -42.1280  146.3450   -5.0170 C   0  0  0  0  0  0  0  0  0  0  0  0
  -40.9850  147.0680   -4.3050 C   0  0  0  0  0  0  0  0  0  0  0  0
  -40.6300  146.3150   -3.1430 O   0  0  0  0  0  0  0  0  0  0  0  0
  -39.5150  146.7140   -2.4570 C   0  0  0  0  0  0  0  0  0  0  0  0
  -39.4520  146.2590   -1.1400 C   0  0  0  0  0  0  0  0  0  0  0  0
  -38.3800  146.5760   -0.2950 C   0  0  0  0  0  0  0  0  0  0  0  0
  -37.3620  147.3960   -0.8070 C   0  0  0  0  0  0  0  0  0  0  0  0
  -37.3890  147.8190   -2.1390 C   0  0  0  0  0  0  0  0  0  0  0  0
  -38.4770  147.4930   -2.9690 C   0  0  0  0  0  0  0  0  0  0  0  0
  -36.2610  148.5170   -2.4700 N   0  0  0  0  0  0  0  0  0  0  0  0
  -35.5450  148.5320   -1.3700 C   0  0  0  0  0  0  0  0  0  0  0  0
  -36.1750  147.9230   -0.3050 N   0  0  0  0  0  0  0  0  0  0  0  0
  -35.6210  147.8990    1.0090 C   0  0  0  0  0  0  0  0  0  0  0  0
  -34.2950  147.5760    1.2270 C   0  0  0  0  0  0  0  0  0  0  0  0
  -33.8250  147.5700    2.5360 C   0  0  0  0  0  0  0  0  0  0  0  0
  -34.6810  147.8790    3.5990 C   0  0  0  0  0  0  0  0  0  0  0  0
  -34.1980  147.8740    4.9180 C   0  0  0  0  0  0  0  0  0  0  0  0
  -35.0430  148.1730    5.9790 C   0  0  0  0  0  0  0  0  0  0  0  0
  -36.3730  148.4800    5.7220 C   0  0  0  0  0  0  0  0  0  0  0  0
  -36.8780  148.4910    4.4080 C   0  0  0  0  0  0  0  0  0  0  0  0
  -38.2610  148.8250    4.2990 N   0  0  0  0  0  0  0  0  0  0  0  0
  -38.5670  150.1230    4.9220 C   0  0  0  0  0  0  0  0  0  0  0  0
  -39.9880  150.5300    4.5280 C   0  0  0  0  0  0  0  0  0  0  0  0
  -41.0260  149.4550    4.8760 C   0  0  0  0  0  0  0  0  0  0  0  0
  -41.3020  149.4420    6.3170 N   0  0  0  0  0  0  0  0  0  0  0  0
  -40.5810  148.0780    4.3620 C   0  0  0  0  0  0  0  0  0  0  0  0
  -39.1430  147.7400    4.7580 C   0  0  0  0  0  0  0  0  0  0  0  0
  -36.0300  148.1820    3.3140 C   0  0  0  0  0  0  0  0  0  0  0  0
  -36.4740  148.1720    2.0310 N   0  0  0  0  0  0  0  0  0  0  0  0
  -42.2780  144.8800   -4.5670 C   0  0  0  0  0  0  0  0  0  0  0  0
  -41.6220  144.4060   -5.7680 O   0  0  0  0  0  0  0  0  0  0  0  0
  -41.7240  145.7240   -6.3660 C   0  0  0  0  0  0  0  0  0  0  0  0
  -43.7513  147.3215   -3.9886 H   0  0  0  0  0  0  0  0  0  0  0  0
  -43.2822  148.0874   -5.5442 H   0  0  0  0  0  0  0  0  0  0  0  0
  -44.2081  146.5481   -5.5442 H   0  0  0  0  0  0  0  0  0  0  0  0
  -40.1178  147.1447   -4.9774 H   0  0  0  0  0  0  0  0  0  0  0  0
  -41.2999  148.0818   -4.0170 H   0  0  0  0  0  0  0  0  0  0  0  0
  -40.2688  145.6322   -0.7528 H   0  0  0  0  0  0  0  0  0  0  0  0
  -38.3375  146.1947    0.7359 H   0  0  0  0  0  0  0  0  0  0  0  0
  -38.5090  147.8481   -4.0096 H   0  0  0  0  0  0  0  0  0  0  0  0
  -34.5444  148.9842   -1.3043 H   0  0  0  0  0  0  0  0  0  0  0  0
  -33.6287  147.3301    0.3871 H   0  0  0  0  0  0  0  0  0  0  0  0
  -32.7727  147.3206    2.7371 H   0  0  0  0  0  0  0  0  0  0  0  0
  -33.1428  147.6315    5.1121 H   0  0  0  0  0  0  0  0  0  0  0  0
  -34.6631  148.1668    7.0113 H   0  0  0  0  0  0  0  0  0  0  0  0
  -37.0439  148.7188    6.5604 H   0  0  0  0  0  0  0  0  0  0  0  0
  -38.4966  150.0347    6.0162 H   0  0  0  0  0  0  0  0  0  0  0  0
  -37.8495  150.8831    4.5792 H   0  0  0  0  0  0  0  0  0  0  0  0
  -40.2492  151.4573    5.0590 H   0  0  0  0  0  0  0  0  0  0  0  0
  -40.0049  150.6695    3.4370 H   0  0  0  0  0  0  0  0  0  0  0  0
  -41.9687  149.7032    4.3665 H   0  0  0  0  0  0  0  0  0  0  0  0
  -41.5860  150.3650    6.6390 H   0  0  0  0  0  0  0  0  0  0  0  0
  -40.4500  149.2180    6.8300 H   0  0  0  0  0  0  0  0  0  0  0  0
  -41.2510  147.3123    4.7801 H   0  0  0  0  0  0  0  0  0  0  0  0
  -40.6277  148.1010    3.2632 H   0  0  0  0  0  0  0  0  0  0  0  0
  -39.0730  147.6433    5.8515 H   0  0  0  0  0  0  0  0  0  0  0  0
  -38.8400  146.7890    4.2955 H   0  0  0  0  0  0  0  0  0  0  0  0
  -41.7335  144.6425   -3.6412 H   0  0  0  0  0  0  0  0  0  0  0  0
  -43.2722  144.4918   -4.3008 H   0  0  0  0  0  0  0  0  0  0  0  0
  -40.7719  146.1060   -6.7630 H   0  0  0  0  0  0  0  0  0  0  0  0
  -42.3641  145.8738   -7.2480 H   0  0  0  0  0  0  0  0  0  0  0  0
  1  2  1  0
  2  3  1  0
  3  4  1  0
  4  5  1  0
  5  6  2  0
  6  7  1  0
  7  8  2  0
  8  9  1  0
  9 10  2  0
  9 11  1  0
 11 12  2  0
 12 13  1  0
 13 14  1  0
 14 15  1  0
 15 16  2  0
 16 17  1  0
 17 18  2  0
 18 19  1  0
 19 20  2  0
 20 21  1  0
 21 22  1  0
 22 23  1  0
 23 24  1  0
 24 25  1  0
 25 26  1  0
 25 27  1  0
 27 28  1  0
 21 29  2  0
 29 30  1  0
  2 31  1  0
 31 32  1  0
 32 33  1  0
 33  2  1  0
 10  5  1  0
 30 14  2  0
 13  8  1  0
 29 17  1  0
 28 22  1  0
  1 34  1  0
  1 35  1  0
  1 36  1  0
  3 37  1  0
  3 38  1  0
  6 39  1  0
  7 40  1  0
 10 41  1  0
 12 42  1  0
 15 43  1  0
 16 44  1  0
 18 45  1  0
 19 46  1  0
 20 47  1  0
 23 48  1  0
 23 49  1  0
 24 50  1  0
 24 51  1  0
 25 52  1  0
 26 53  1  0
 26 54  1  0
 27 55  1  0
 27 56  1  0
 28 57  1  0
 28 58  1  0
 31 59  1  0
 31 60  1  0
 33 61  1  0
 33 62  1  0
M  END
>  <meeko>  (8) 
{"is_sidechain": false}

>  <vina_affinity_kcal_mol>  (8) 
-8.181

>  <pose_rank>  (8) 
8

$$$$

     RDKit          3D

 62 67  0  0  0  0  0  0  0  0999 V2000
  -35.2240  147.1520   -2.3950 C   0  0  0  0  0  0  0  0  0  0  0  0
  -36.2310  148.2920   -2.3210 C   0  0  0  0  0  0  0  0  0  0  0  0
  -37.6670  147.8220   -2.0880 C   0  0  0  0  0  0  0  0  0  0  0  0
  -37.6540  146.8330   -1.0550 O   0  0  0  0  0  0  0  0  0  0  0  0
  -37.8740  147.2640    0.2250 C   0  0  0  0  0  0  0  0  0  0  0  0
  -36.7970  147.0770    1.0920 C   0  0  0  0  0  0  0  0  0  0  0  0
  -36.8530  147.4600    2.4390 C   0  0  0  0  0  0  0  0  0  0  0  0
  -38.0470  148.0260    2.9100 C   0  0  0  0  0  0  0  0  0  0  0  0
  -39.1160  148.2640    2.0420 C   0  0  0  0  0  0  0  0  0  0  0  0
  -39.0410  147.8670    0.6940 C   0  0  0  0  0  0  0  0  0  0  0  0
  -40.1420  148.9140    2.6690 N   0  0  0  0  0  0  0  0  0  0  0  0
  -39.7260  149.0800    3.9030 C   0  0  0  0  0  0  0  0  0  0  0  0
  -38.4890  148.5160    4.1370 N   0  0  0  0  0  0  0  0  0  0  0  0
  -37.8810  148.4980    5.4270 C   0  0  0  0  0  0  0  0  0  0  0  0
  -38.0790  147.4490    6.3040 C   0  0  0  0  0  0  0  0  0  0  0  0
  -37.4560  147.5010    7.5470 C   0  0  0  0  0  0  0  0  0  0  0  0
  -36.6550  148.5950    7.8930 C   0  0  0  0  0  0  0  0  0  0  0  0
  -36.0270  148.6390    9.1480 C   0  0  0  0  0  0  0  0  0  0  0  0
  -35.2340  149.7240    9.5020 C   0  0  0  0  0  0  0  0  0  0  0  0
  -35.0690  150.7660    8.6000 C   0  0  0  0  0  0  0  0  0  0  0  0
  -35.6890  150.7430    7.3360 C   0  0  0  0  0  0  0  0  0  0  0  0
  -35.4260  151.8810    6.5160 N   0  0  0  0  0  0  0  0  0  0  0  0
  -33.9840  152.0980    6.3180 C   0  0  0  0  0  0  0  0  0  0  0  0
  -33.7950  153.1510    5.2250 C   0  0  0  0  0  0  0  0  0  0  0  0
  -34.5460  154.4540    5.5270 C   0  0  0  0  0  0  0  0  0  0  0  0
  -33.8520  155.2310    6.5590 N   0  0  0  0  0  0  0  0  0  0  0  0
  -36.0070  154.1680    5.9040 C   0  0  0  0  0  0  0  0  0  0  0  0
  -36.1360  153.0860    6.9770 C   0  0  0  0  0  0  0  0  0  0  0  0
  -36.5050  149.6450    6.9620 C   0  0  0  0  0  0  0  0  0  0  0  0
  -37.1300  149.5830    5.7580 N   0  0  0  0  0  0  0  0  0  0  0  0
  -35.8180  149.4370   -1.3780 C   0  0  0  0  0  0  0  0  0  0  0  0
  -35.9970  150.4160   -2.4300 O   0  0  0  0  0  0  0  0  0  0  0  0
  -36.1000  149.3610   -3.4200 C   0  0  0  0  0  0  0  0  0  0  0  0
  -34.9482  146.8397   -1.3770 H   0  0  0  0  0  0  0  0  0  0  0  0
  -35.6714  146.3018   -2.9308 H   0  0  0  0  0  0  0  0  0  0  0  0
  -34.3251  147.4910   -2.9308 H   0  0  0  0  0  0  0  0  0  0  0  0
  -38.2916  148.6734   -1.7799 H   0  0  0  0  0  0  0  0  0  0  0  0
  -38.0816  147.3972   -3.0141 H   0  0  0  0  0  0  0  0  0  0  0  0
  -35.8761  146.6150    0.7067 H   0  0  0  0  0  0  0  0  0  0  0  0
  -35.9888  147.3213    3.1052 H   0  0  0  0  0  0  0  0  0  0  0  0
  -39.8931  148.0304    0.0178 H   0  0  0  0  0  0  0  0  0  0  0  0
  -40.3043  149.6139    4.6714 H   0  0  0  0  0  0  0  0  0  0  0  0
  -38.7132  146.5942    6.0265 H   0  0  0  0  0  0  0  0  0  0  0  0
  -37.5940  146.6768    8.2623 H   0  0  0  0  0  0  0  0  0  0  0  0
  -36.1637  147.8085    9.8563 H   0  0  0  0  0  0  0  0  0  0  0  0
  -34.7428  149.7566   10.4857 H   0  0  0  0  0  0  0  0  0  0  0  0
  -34.4420  151.6260    8.8779 H   0  0  0  0  0  0  0  0  0  0  0  0
  -33.5302  152.4514    7.2556 H   0  0  0  0  0  0  0  0  0  0  0  0
  -33.4994  151.1563    6.0207 H   0  0  0  0  0  0  0  0  0  0  0  0
  -32.7221  153.3756    5.1335 H   0  0  0  0  0  0  0  0  0  0  0  0
  -34.2037  152.7391    4.2905 H   0  0  0  0  0  0  0  0  0  0  0  0
  -34.5600  155.0677    4.6142 H   0  0  0  0  0  0  0  0  0  0  0  0
  -32.8800  154.9400    6.6380 H   0  0  0  0  0  0  0  0  0  0  0  0
  -34.2720  155.0470    7.4700 H   0  0  0  0  0  0  0  0  0  0  0  0
  -36.4613  155.0956    6.2825 H   0  0  0  0  0  0  0  0  0  0  0  0
  -36.5193  153.8047    5.0009 H   0  0  0  0  0  0  0  0  0  0  0  0
  -35.6903  153.4418    7.9176 H   0  0  0  0  0  0  0  0  0  0  0  0
  -37.1970  152.8538    7.1512 H   0  0  0  0  0  0  0  0  0  0  0  0
  -36.4971  149.5748   -0.5237 H   0  0  0  0  0  0  0  0  0  0  0  0
  -34.8583  149.3822   -0.8433 H   0  0  0  0  0  0  0  0  0  0  0  0
  -36.9863  149.4439   -4.0662 H   0  0  0  0  0  0  0  0  0  0  0  0
  -35.3206  149.2583   -4.1894 H   0  0  0  0  0  0  0  0  0  0  0  0
  1  2  1  0
  2  3  1  0
  3  4  1  0
  4  5  1  0
  5  6  2  0
  6  7  1  0
  7  8  2  0
  8  9  1  0
  9 10  2  0
  9 11  1  0
 11 12  2  0
 12 13  1  0
 13 14  1  0
 14 15  1  0
 15 16  2  0
 16 17  1  0
 17 18  2  0
 18 19  1  0
 19 20  2  0
 20 21  1  0
 21 22  1  0
 22 23  1  0
 23 24  1  0
 24 25  1  0
 25 26  1  0
 25 27  1  0
 27 28  1  0
 21 29  2  0
 29 30  1  0
  2 31  1  0
 31 32  1  0
 32 33  1  0
 33  2  1  0
 10  5  1  0
 30 14  2  0
 13  8  1  0
 29 17  1  0
 28 22  1  0
  1 34  1  0
  1 35  1  0
  1 36  1  0
  3 37  1  0
  3 38  1  0
  6 39  1  0
  7 40  1  0
 10 41  1  0
 12 42  1  0
 15 43  1  0
 16 44  1  0
 18 45  1  0
 19 46  1  0
 20 47  1  0
 23 48  1  0
 23 49  1  0
 24 50  1  0
 24 51  1  0
 25 52  1  0
 26 53  1  0
 26 54  1  0
 27 55  1  0
 27 56  1  0
 28 57  1  0
 28 58  1  0
 31 59  1  0
 31 60  1  0
 33 61  1  0
 33 62  1  0
M  END
>  <meeko>  (9) 
{"is_sidechain": false}

>  <vina_affinity_kcal_mol>  (9) 
-8.106

>  <pose_rank>  (9) 
9

$$$$

     RDKit          3D

 62 67  0  0  0  0  0  0  0  0999 V2000
  -36.0670  149.4280   -3.1760 C   0  0  0  0  0  0  0  0  0  0  0  0
  -36.0330  148.4180   -2.0370 C   0  0  0  0  0  0  0  0  0  0  0  0
  -35.4390  148.9770   -0.7440 C   0  0  0  0  0  0  0  0  0  0  0  0
  -34.5150  148.0190   -0.2230 O   0  0  0  0  0  0  0  0  0  0  0  0
  -34.6850  147.6310    1.0790 C   0  0  0  0  0  0  0  0  0  0  0  0
  -34.6580  148.6770    2.0020 C   0  0  0  0  0  0  0  0  0  0  0  0
  -34.8150  148.4570    3.3770 C   0  0  0  0  0  0  0  0  0  0  0  0
  -34.9800  147.1340    3.8150 C   0  0  0  0  0  0  0  0  0  0  0  0
  -35.0570  146.0820    2.8970 C   0  0  0  0  0  0  0  0  0  0  0  0
  -34.8920  146.3240    1.5210 C   0  0  0  0  0  0  0  0  0  0  0  0
  -35.3230  144.8910    3.5140 N   0  0  0  0  0  0  0  0  0  0  0  0
  -35.4100  145.1900    4.7890 C   0  0  0  0  0  0  0  0  0  0  0  0
  -35.1560  146.5200    5.0530 N   0  0  0  0  0  0  0  0  0  0  0  0
  -35.1090  147.0490    6.3760 C   0  0  0  0  0  0  0  0  0  0  0  0
  -35.0330  146.2230    7.4810 C   0  0  0  0  0  0  0  0  0  0  0  0
  -34.9930  146.8100    8.7420 C   0  0  0  0  0  0  0  0  0  0  0  0
  -35.0360  148.2010    8.8780 C   0  0  0  0  0  0  0  0  0  0  0  0
  -34.9930  148.7870   10.1530 C   0  0  0  0  0  0  0  0  0  0  0  0
  -35.0410  150.1680   10.2980 C   0  0  0  0  0  0  0  0  0  0  0  0
  -35.1320  150.9660    9.1650 C   0  0  0  0  0  0  0  0  0  0  0  0
  -35.1770  150.4010    7.8760 C   0  0  0  0  0  0  0  0  0  0  0  0
  -35.2670  151.3430    6.8090 N   0  0  0  0  0  0  0  0  0  0  0  0
  -33.9810  152.0110    6.5510 C   0  0  0  0  0  0  0  0  0  0  0  0
  -34.0910  152.7890    5.2390 C   0  0  0  0  0  0  0  0  0  0  0  0
  -35.2700  153.7700    5.2320 C   0  0  0  0  0  0  0  0  0  0  0  0
  -34.9720  154.9540    6.0460 N   0  0  0  0  0  0  0  0  0  0  0  0
  -36.5630  153.0730    5.6810 C   0  0  0  0  0  0  0  0  0  0  0  0
  -36.3850  152.2850    6.9800 C   0  0  0  0  0  0  0  0  0  0  0  0
  -35.1330  148.9920    7.7130 C   0  0  0  0  0  0  0  0  0  0  0  0
  -35.1820  148.4020    6.4910 N   0  0  0  0  0  0  0  0  0  0  0  0
  -37.3660  147.6800   -1.8100 C   0  0  0  0  0  0  0  0  0  0  0  0
  -36.7090  146.3920   -1.9020 O   0  0  0  0  0  0  0  0  0  0  0  0
  -35.5050  147.0210   -2.4090 C   0  0  0  0  0  0  0  0  0  0  0  0
  -36.1013  150.4465   -2.7620 H   0  0  0  0  0  0  0  0  0  0  0  0
  -35.1645  149.3138   -3.7944 H   0  0  0  0  0  0  0  0  0  0  0  0
  -36.9598  149.2533   -3.7944 H   0  0  0  0  0  0  0  0  0  0  0  0
  -34.9164  149.9221   -0.9530 H   0  0  0  0  0  0  0  0  0  0  0  0
  -36.2377  149.1696   -0.0125 H   0  0  0  0  0  0  0  0  0  0  0  0
  -34.5091  149.7048    1.6396 H   0  0  0  0  0  0  0  0  0  0  0  0
  -34.8091  149.2945    4.0902 H   0  0  0  0  0  0  0  0  0  0  0  0
  -34.9258  145.4923    0.8019 H   0  0  0  0  0  0  0  0  0  0  0  0
  -35.6601  144.4547    5.5680 H   0  0  0  0  0  0  0  0  0  0  0  0
  -35.0048  145.1293    7.3668 H   0  0  0  0  0  0  0  0  0  0  0  0
  -34.9271  146.1754    9.6380 H   0  0  0  0  0  0  0  0  0  0  0  0
  -34.9207  148.1473   11.0449 H   0  0  0  0  0  0  0  0  0  0  0  0
  -35.0073  150.6239   11.2985 H   0  0  0  0  0  0  0  0  0  0  0  0
  -35.1696  152.0597    9.2766 H   0  0  0  0  0  0  0  0  0  0  0  0
  -33.7510  152.7032    7.3744 H   0  0  0  0  0  0  0  0  0  0  0  0
  -33.1768  151.2639    6.4791 H   0  0  0  0  0  0  0  0  0  0  0  0
  -33.1605  153.3554    5.0862 H   0  0  0  0  0  0  0  0  0  0  0  0
  -34.2593  152.0601    4.4326 H   0  0  0  0  0  0  0  0  0  0  0  0
  -35.4275  154.1172    4.2002 H   0  0  0  0  0  0  0  0  0  0  0  0
  -35.8170  155.3090    6.4900 H   0  0  0  0  0  0  0  0  0  0  0  0
  -34.6350  155.7070    5.4480 H   0  0  0  0  0  0  0  0  0  0  0  0
  -37.3396  153.8365    5.8355 H   0  0  0  0  0  0  0  0  0  0  0  0
  -36.8475  152.3590    4.8941 H   0  0  0  0  0  0  0  0  0  0  0  0
  -36.1633  152.9771    7.8057 H   0  0  0  0  0  0  0  0  0  0  0  0
  -37.3078  151.7341    7.2145 H   0  0  0  0  0  0  0  0  0  0  0  0
  -37.8205  147.8770   -0.8279 H   0  0  0  0  0  0  0  0  0  0  0  0
  -38.2270  147.8994   -2.4584 H   0  0  0  0  0  0  0  0  0  0  0  0
  -34.5921  146.7330   -1.8670 H   0  0  0  0  0  0  0  0  0  0  0  0
  -35.1783  146.8194   -3.4398 H   0  0  0  0  0  0  0  0  0  0  0  0
  1  2  1  0
  2  3  1  0
  3  4  1  0
  4  5  1  0
  5  6  2  0
  6  7  1  0
  7  8  2  0
  8  9  1  0
  9 10  2  0
  9 11  1  0
 11 12  2  0
 12 13  1  0
 13 14  1  0
 14 15  1  0
 15 16  2  0
 16 17  1  0
 17 18  2  0
 18 19  1  0
 19 20  2  0
 20 21  1  0
 21 22  1  0
 22 23  1  0
 23 24  1  0
 24 25  1  0
 25 26  1  0
 25 27  1  0
 27 28  1  0
 21 29  2  0
 29 30  1  0
  2 31  1  0
 31 32  1  0
 32 33  1  0
 33  2  1  0
 10  5  1  0
 30 14  2  0
 13  8  1  0
 29 17  1  0
 28 22  1  0
  1 34  1  0
  1 35  1  0
  1 36  1  0
  3 37  1  0
  3 38  1  0
  6 39  1  0
  7 40  1  0
 10 41  1  0
 12 42  1  0
 15 43  1  0
 16 44  1  0
 18 45  1  0
 19 46  1  0
 20 47  1  0
 23 48  1  0
 23 49  1  0
 24 50  1  0
 24 51  1  0
 25 52  1  0
 26 53  1  0
 26 54  1  0
 27 55  1  0
 27 56  1  0
 28 57  1  0
 28 58  1  0
 31 59  1  0
 31 60  1  0
 33 61  1  0
 33 62  1  0
M  END
>  <meeko>  (10) 
{"is_sidechain": false}

>  <vina_affinity_kcal_mol>  (10) 
-7.789

>  <pose_rank>  (10) 
10

$$$$
