
     RDKit          3D

 54 57  0  0  0  0  0  0  0  0999 V2000
   -7.3202    0.5678   -0.3178 C   0  0  0  0  0  0  0  0  0  0  0  0
   -5.8639    0.2074   -0.2467 C   0  0  0  0  0  0  0  0  0  0  0  0
   -5.4601   -0.7638    0.6797 C   0  0  0  0  0  0  0  0  0  0  0  0
   -4.1197   -1.1580    0.7828 C   0  0  0  0  0  0  0  0  0  0  0  0
   -3.1341   -0.6054   -0.0350 C   0  0  0  0  0  0  0  0  0  0  0  0
   -1.7853   -0.9658    0.0139 N   0  0  0  0  0  0  0  0  0  0  0  0
   -1.0377   -1.8303    0.8089 C   0  0  0  0  0  0  0  0  0  0  0  0
   -1.5941   -2.5795    1.7691 N   0  0  0  0  0  0  0  0  0  0  0  0
   -0.7725   -3.3602    2.4868 C   0  0  0  0  0  0  0  0  0  0  0  0
    0.5797   -3.4326    2.2719 C   0  0  0  0  0  0  0  0  0  0  0  0
    1.0834   -2.6466    1.2537 C   0  0  0  0  0  0  0  0  0  0  0  0
    2.4830   -2.6641    0.9805 N   0  0  0  0  0  0  0  0  0  0  0  0
    2.9001   -3.9720    0.4648 C   0  0  0  0  0  0  0  0  0  0  0  0
    3.1873   -1.5129    0.5001 C   0  0  0  0  0  0  0  0  0  0  0  0
    4.2255   -1.6074   -0.4998 C   0  0  0  0  0  0  0  0  0  0  0  0
    4.9801   -0.5207   -1.0056 C   0  0  0  0  0  0  0  0  0  0  0  0
    4.6051    0.6764   -0.4109 C   0  0  0  0  0  0  0  0  0  0  0  0
    5.1387    1.9147   -0.6746 C   0  0  0  0  0  0  0  0  0  0  0  0
    6.2025    2.3813   -1.5961 C   0  0  0  0  0  0  0  0  0  0  0  0
    4.4356    2.7597    0.1520 N   0  0  0  0  0  0  0  0  0  0  0  0
    4.5977    4.1914    0.2671 C   0  0  0  0  0  0  0  0  0  0  0  0
    3.5179    2.1481    0.9273 N   0  0  0  0  0  0  0  0  0  0  0  0
    3.5911    0.8500    0.5927 C   0  0  0  0  0  0  0  0  0  0  0  0
    2.8599   -0.2491    1.0740 C   0  0  0  0  0  0  0  0  0  0  0  0
    0.2747   -1.8456    0.5329 N   0  0  0  0  0  0  0  0  0  0  0  0
   -3.5381    0.3548   -0.9734 C   0  0  0  0  0  0  0  0  0  0  0  0
   -4.8803    0.7630   -1.0809 C   0  0  0  0  0  0  0  0  0  0  0  0
   -5.2680    1.9708   -2.3246 S   0  0  0  0  0  0  0  0  0  0  0  0
   -5.5397    3.3537   -1.4105 N   0  0  0  0  0  0  0  0  0  0  0  0
   -6.5254    1.6425   -2.9534 O   0  0  0  0  0  0  0  0  0  0  0  0
   -4.0836    2.2627   -3.1005 O   0  0  0  0  0  0  0  0  0  0  0  0
   -7.4614    1.6519   -0.3237 H   0  0  0  0  0  0  0  0  0  0  0  0
   -7.7784    0.1259   -1.2076 H   0  0  0  0  0  0  0  0  0  0  0  0
   -7.8647    0.1903    0.5551 H   0  0  0  0  0  0  0  0  0  0  0  0
   -6.1880   -1.2331    1.3396 H   0  0  0  0  0  0  0  0  0  0  0  0
   -3.8705   -1.9144    1.5213 H   0  0  0  0  0  0  0  0  0  0  0  0
   -1.1497   -0.4775   -0.6021 H   0  0  0  0  0  0  0  0  0  0  0  0
   -1.2495   -3.9405    3.2705 H   0  0  0  0  0  0  0  0  0  0  0  0
    1.2137   -4.0538    2.8886 H   0  0  0  0  0  0  0  0  0  0  0  0
    3.9785   -4.1188    0.5981 H   0  0  0  0  0  0  0  0  0  0  0  0
    2.4314   -4.8078    0.9977 H   0  0  0  0  0  0  0  0  0  0  0  0
    2.6488   -4.0778   -0.5976 H   0  0  0  0  0  0  0  0  0  0  0  0
    4.4638   -2.5750   -0.9372 H   0  0  0  0  0  0  0  0  0  0  0  0
    5.7423   -0.6396   -1.7620 H   0  0  0  0  0  0  0  0  0  0  0  0
    5.7708    2.9747   -2.4084 H   0  0  0  0  0  0  0  0  0  0  0  0
    6.9341    2.9994   -1.0657 H   0  0  0  0  0  0  0  0  0  0  0  0
    6.7453    1.5441   -2.0446 H   0  0  0  0  0  0  0  0  0  0  0  0
    5.5486    4.3873    0.7684 H   0  0  0  0  0  0  0  0  0  0  0  0
    4.5904    4.6271   -0.7349 H   0  0  0  0  0  0  0  0  0  0  0  0
    3.7727    4.6066    0.8519 H   0  0  0  0  0  0  0  0  0  0  0  0
    2.1027   -0.1232    1.8352 H   0  0  0  0  0  0  0  0  0  0  0  0
   -2.7908    0.7932   -1.6329 H   0  0  0  0  0  0  0  0  0  0  0  0
   -6.4976    3.6761   -1.5460 H   0  0  0  0  0  0  0  0  0  0  0  0
   -4.8318    4.0545   -1.6315 H   0  0  0  0  0  0  0  0  0  0  0  0
  1  2  1  0
  2  3  1  0
  3  4  2  0
  4  5  1  0
  5  6  1  0
  6  7  1  0
  7  8  2  0
  8  9  1  0
  9 10  2  0
 10 11  1  0
 11 12  1  0
 12 13  1  0
 12 14  1  0
 14 15  1  0
 15 16  2  0
 16 17  1  0
 17 18  2  0
 18 19  1  0
 18 20  1  0
 20 21  1  0
 20 22  1  0
 22 23  2  0
 23 24  1  0
 11 25  2  0
  5 26  2  0
 26 27  1  0
 27 28  1  0
 28 29  1  0
 28 30  2  0
 28 31  2  0
 27  2  2  0
 25  7  1  0
 24 14  2  0
 23 17  1  0
  1 32  1  0
  1 33  1  0
  1 34  1  0
  3 35  1  0
  4 36  1  0
  6 37  1  0
  9 38  1  0
 10 39  1  0
 13 40  1  0
 13 41  1  0
 13 42  1  0
 15 43  1  0
 16 44  1  0
 19 45  1  0
 19 46  1  0
 19 47  1  0
 21 48  1  0
 21 49  1  0
 21 50  1  0
 24 51  1  0
 26 52  1  0
 29 53  1  0
 29 54  1  0
M  END
$$$$
