
     RDKit          3D

 54 57  0  0  0  0  0  0  0  0999 V2000
  -33.7130  157.0910    5.8190 C   0  0  0  0  0  0  0  0  0  0  0  0
  -35.0780  157.0680    5.1920 C   0  0  0  0  0  0  0  0  0  0  0  0
  -35.5980  158.2640    4.6780 C   0  0  0  0  0  0  0  0  0  0  0  0
  -36.8570  158.3050    4.0650 C   0  0  0  0  0  0  0  0  0  0  0  0
  -37.6420  157.1580    3.9370 C   0  0  0  0  0  0  0  0  0  0  0  0
  -38.8980  157.1350    3.3260 N   0  0  0  0  0  0  0  0  0  0  0  0
  -39.5410  157.9440    2.3940 C   0  0  0  0  0  0  0  0  0  0  0  0
  -40.6930  158.5700    2.6640 N   0  0  0  0  0  0  0  0  0  0  0  0
  -41.2320  159.3070    1.6810 C   0  0  0  0  0  0  0  0  0  0  0  0
  -40.6570  159.4550    0.4450 C   0  0  0  0  0  0  0  0  0  0  0  0
  -39.4610  158.7960    0.2420 C   0  0  0  0  0  0  0  0  0  0  0  0
  -38.8110  158.8970   -1.0240 N   0  0  0  0  0  0  0  0  0  0  0  0
  -38.9050  157.6330   -1.7630 C   0  0  0  0  0  0  0  0  0  0  0  0
  -38.8020  160.1070   -1.7900 C   0  0  0  0  0  0  0  0  0  0  0  0
  -39.0890  161.3940   -1.2010 C   0  0  0  0  0  0  0  0  0  0  0  0
  -39.1230  162.6270   -1.8970 C   0  0  0  0  0  0  0  0  0  0  0  0
  -38.8490  162.4540   -3.2470 C   0  0  0  0  0  0  0  0  0  0  0  0
  -38.8040  163.4450   -4.1980 C   0  0  0  0  0  0  0  0  0  0  0  0
  -39.0110  164.9120   -4.1400 C   0  0  0  0  0  0  0  0  0  0  0  0
  -38.4920  162.7740   -5.3580 N   0  0  0  0  0  0  0  0  0  0  0  0
  -38.3140  163.3510   -6.6710 C   0  0  0  0  0  0  0  0  0  0  0  0
  -38.3560  161.4400   -5.2130 N   0  0  0  0  0  0  0  0  0  0  0  0
  -38.5630  161.2100   -3.9070 C   0  0  0  0  0  0  0  0  0  0  0  0
  -38.5370  160.0030   -3.1880 C   0  0  0  0  0  0  0  0  0  0  0  0
  -38.9120  158.0400    1.2120 N   0  0  0  0  0  0  0  0  0  0  0  0
  -37.1170  155.9580    4.4370 C   0  0  0  0  0  0  0  0  0  0  0  0
  -35.8570  155.9060    5.0600 C   0  0  0  0  0  0  0  0  0  0  0  0
  -35.2940  154.3210    5.6320 S   0  0  0  0  0  0  0  0  0  0  0  0
  -36.4810  153.2860    5.0470 N   0  0  0  0  0  0  0  0  0  0  0  0
  -35.3740  154.2620    7.0720 O   0  0  0  0  0  0  0  0  0  0  0  0
  -34.0920  153.9500    4.9210 O   0  0  0  0  0  0  0  0  0  0  0  0
  -33.8126  157.0893    6.9145 H   0  0  0  0  0  0  0  0  0  0  0  0
  -33.1483  156.2022    5.5008 H   0  0  0  0  0  0  0  0  0  0  0  0
  -33.1786  157.9983    5.5008 H   0  0  0  0  0  0  0  0  0  0  0  0
  -35.0062  159.1879    4.7575 H   0  0  0  0  0  0  0  0  0  0  0  0
  -37.2352  159.2619    3.6761 H   0  0  0  0  0  0  0  0  0  0  0  0
  -39.5530  156.4310    3.6360 H   0  0  0  0  0  0  0  0  0  0  0  0
  -42.1854  159.8195    1.8769 H   0  0  0  0  0  0  0  0  0  0  0  0
  -41.1234  160.0657   -0.3421 H   0  0  0  0  0  0  0  0  0  0  0  0
  -38.9672  156.7962   -1.0517 H   0  0  0  0  0  0  0  0  0  0  0  0
  -39.8048  157.6442   -2.3957 H   0  0  0  0  0  0  0  0  0  0  0  0
  -38.0134  157.5110   -2.3957 H   0  0  0  0  0  0  0  0  0  0  0  0
  -39.2987  161.4187   -0.1215 H   0  0  0  0  0  0  0  0  0  0  0  0
  -39.3390  163.5981   -1.4277 H   0  0  0  0  0  0  0  0  0  0  0  0
  -39.0565  165.2346   -3.0894 H   0  0  0  0  0  0  0  0  0  0  0  0
  -38.1757  165.4204   -4.6438 H   0  0  0  0  0  0  0  0  0  0  0  0
  -39.9544  165.1694   -4.6438 H   0  0  0  0  0  0  0  0  0  0  0  0
  -37.9911  164.3977   -6.5708 H   0  0  0  0  0  0  0  0  0  0  0  0
  -37.5495  162.7824   -7.2208 H   0  0  0  0  0  0  0  0  0  0  0  0
  -39.2660  163.3120   -7.2208 H   0  0  0  0  0  0  0  0  0  0  0  0
  -38.3256  159.0384   -3.6726 H   0  0  0  0  0  0  0  0  0  0  0  0
  -37.7054  155.0337    4.3396 H   0  0  0  0  0  0  0  0  0  0  0  0
  -37.0520  152.9420    5.8200 H   0  0  0  0  0  0  0  0  0  0  0  0
  -36.0470  152.5480    4.4920 H   0  0  0  0  0  0  0  0  0  0  0  0
  1  2  1  0
  2  3  1  0
  3  4  2  0
  4  5  1  0
  5  6  1  0
  6  7  1  0
  7  8  2  0
  8  9  1  0
  9 10  2  0
 10 11  1  0
 11 12  1  0
 12 13  1  0
 12 14  1  0
 14 15  1  0
 15 16  2  0
 16 17  1  0
 17 18  2  0
 18 19  1  0
 18 20  1  0
 20 21  1  0
 20 22  1  0
 22 23  2  0
 23 24  1  0
 11 25  2  0
  5 26  2  0
 26 27  1  0
 27 28  1  0
 28 29  1  0
 28 30  2  0
 28 31  2  0
 27  2  2  0
 25  7  1  0
 24 14  2  0
 23 17  1  0
  1 32  1  0
  1 33  1  0
  1 34  1  0
  3 35  1  0
  4 36  1  0
  6 37  1  0
  9 38  1  0
 10 39  1  0
 13 40  1  0
 13 41  1  0
 13 42  1  0
 15 43  1  0
 16 44  1  0
 19 45  1  0
 19 46  1  0
 19 47  1  0
 21 48  1  0
 21 49  1  0
 21 50  1  0
 24 51  1  0
 26 52  1  0
 29 53  1  0
 29 54  1  0
M  END
>  <meeko>  (1) 
{"is_sidechain": false}

>  <vina_affinity_kcal_mol>  (1) 
-11.002

>  <pose_rank>  (1) 
1

$$$$

     RDKit          3D

 54 57  0  0  0  0  0  0  0  0999 V2000
  -36.8840  163.2040  -10.6350 C   0  0  0  0  0  0  0  0  0  0  0  0
  -37.4210  163.6730   -9.3130 C   0  0  0  0  0  0  0  0  0  0  0  0
  -37.7260  162.7150   -8.3370 C   0  0  0  0  0  0  0  0  0  0  0  0
  -38.2130  163.0880   -7.0780 C   0  0  0  0  0  0  0  0  0  0  0  0
  -38.4090  164.4280   -6.7420 C   0  0  0  0  0  0  0  0  0  0  0  0
  -38.8800  164.8610   -5.5000 N   0  0  0  0  0  0  0  0  0  0  0  0
  -38.8440  164.3390   -4.2100 C   0  0  0  0  0  0  0  0  0  0  0  0
  -38.5820  165.0980   -3.1390 N   0  0  0  0  0  0  0  0  0  0  0  0
  -38.5530  164.4820   -1.9470 C   0  0  0  0  0  0  0  0  0  0  0  0
  -38.7910  163.1420   -1.7830 C   0  0  0  0  0  0  0  0  0  0  0  0
  -39.0720  162.4240   -2.9290 C   0  0  0  0  0  0  0  0  0  0  0  0
  -39.3190  161.0220   -2.8350 N   0  0  0  0  0  0  0  0  0  0  0  0
  -38.5310  160.2840   -3.8290 C   0  0  0  0  0  0  0  0  0  0  0  0
  -39.5810  160.3680   -1.5880 C   0  0  0  0  0  0  0  0  0  0  0  0
  -40.8680  160.4410   -0.9350 C   0  0  0  0  0  0  0  0  0  0  0  0
  -41.1950  159.8440    0.3060 C   0  0  0  0  0  0  0  0  0  0  0  0
  -40.1080  159.1690    0.8450 C   0  0  0  0  0  0  0  0  0  0  0  0
  -40.0890  158.4840    2.0360 C   0  0  0  0  0  0  0  0  0  0  0  0
  -41.1140  158.2400    3.0780 C   0  0  0  0  0  0  0  0  0  0  0  0
  -38.8050  157.9960    2.1140 N   0  0  0  0  0  0  0  0  0  0  0  0
  -38.2490  157.1900    3.1770 C   0  0  0  0  0  0  0  0  0  0  0  0
  -38.0130  158.3350    1.0770 N   0  0  0  0  0  0  0  0  0  0  0  0
  -38.7980  159.0580    0.2630 C   0  0  0  0  0  0  0  0  0  0  0  0
  -38.5060  159.6630   -0.9710 C   0  0  0  0  0  0  0  0  0  0  0  0
  -39.0910  163.0230   -4.1350 N   0  0  0  0  0  0  0  0  0  0  0  0
  -38.0900  165.3890   -7.7110 C   0  0  0  0  0  0  0  0  0  0  0  0
  -37.6070  165.0250   -8.9810 C   0  0  0  0  0  0  0  0  0  0  0  0
  -37.2180  166.3390  -10.1130 S   0  0  0  0  0  0  0  0  0  0  0  0
  -37.1910  167.6840   -9.1070 N   0  0  0  0  0  0  0  0  0  0  0  0
  -38.3140  166.5370  -11.0300 O   0  0  0  0  0  0  0  0  0  0  0  0
  -35.8570  166.1900  -10.5750 O   0  0  0  0  0  0  0  0  0  0  0  0
  -36.0654  162.4890  -10.4654 H   0  0  0  0  0  0  0  0  0  0  0  0
  -37.6875  162.7133  -11.2039 H   0  0  0  0  0  0  0  0  0  0  0  0
  -36.5058  164.0662  -11.2039 H   0  0  0  0  0  0  0  0  0  0  0  0
  -37.5800  161.6487   -8.5642 H   0  0  0  0  0  0  0  0  0  0  0  0
  -38.4460  162.3079   -6.3382 H   0  0  0  0  0  0  0  0  0  0  0  0
  -39.4310  165.7080   -5.4810 H   0  0  0  0  0  0  0  0  0  0  0  0
  -38.3263  165.0840   -1.0547 H   0  0  0  0  0  0  0  0  0  0  0  0
  -38.7599  162.6645   -0.7925 H   0  0  0  0  0  0  0  0  0  0  0  0
  -37.8214  159.6194   -3.3144 H   0  0  0  0  0  0  0  0  0  0  0  0
  -39.2044  159.6842   -4.4588 H   0  0  0  0  0  0  0  0  0  0  0  0
  -37.9765  160.9952   -4.4588 H   0  0  0  0  0  0  0  0  0  0  0  0
  -41.6603  161.0083   -1.4453 H   0  0  0  0  0  0  0  0  0  0  0  0
  -42.1843  159.9068    0.7827 H   0  0  0  0  0  0  0  0  0  0  0  0
  -40.6582  158.3485    4.0732 H   0  0  0  0  0  0  0  0  0  0  0  0
  -41.9303  158.9689    2.9671 H   0  0  0  0  0  0  0  0  0  0  0  0
  -41.5144  157.2215    2.9671 H   0  0  0  0  0  0  0  0  0  0  0  0
  -38.5411  157.6134    4.1493 H   0  0  0  0  0  0  0  0  0  0  0  0
  -38.6307  156.1616    3.0954 H   0  0  0  0  0  0  0  0  0  0  0  0
  -37.1521  157.1816    3.0954 H   0  0  0  0  0  0  0  0  0  0  0  0
  -37.5097  159.5969   -1.4326 H   0  0  0  0  0  0  0  0  0  0  0  0
  -38.2206  166.4548   -7.4724 H   0  0  0  0  0  0  0  0  0  0  0  0
  -38.1290  168.0760   -9.0280 H   0  0  0  0  0  0  0  0  0  0  0  0
  -36.4910  168.3470   -9.4420 H   0  0  0  0  0  0  0  0  0  0  0  0
  1  2  1  0
  2  3  1  0
  3  4  2  0
  4  5  1  0
  5  6  1  0
  6  7  1  0
  7  8  2  0
  8  9  1  0
  9 10  2  0
 10 11  1  0
 11 12  1  0
 12 13  1  0
 12 14  1  0
 14 15  1  0
 15 16  2  0
 16 17  1  0
 17 18  2  0
 18 19  1  0
 18 20  1  0
 20 21  1  0
 20 22  1  0
 22 23  2  0
 23 24  1  0
 11 25  2  0
  5 26  2  0
 26 27  1  0
 27 28  1  0
 28 29  1  0
 28 30  2  0
 28 31  2  0
 27  2  2  0
 25  7  1  0
 24 14  2  0
 23 17  1  0
  1 32  1  0
  1 33  1  0
  1 34  1  0
  3 35  1  0
  4 36  1  0
  6 37  1  0
  9 38  1  0
 10 39  1  0
 13 40  1  0
 13 41  1  0
 13 42  1  0
 15 43  1  0
 16 44  1  0
 19 45  1  0
 19 46  1  0
 19 47  1  0
 21 48  1  0
 21 49  1  0
 21 50  1  0
 24 51  1  0
 26 52  1  0
 29 53  1  0
 29 54  1  0
M  END
>  <meeko>  (2) 
{"is_sidechain": false}

>  <vina_affinity_kcal_mol>  (2) 
-10.415

>  <pose_rank>  (2) 
2

$$$$

     RDKit          3D

 54 57  0  0  0  0  0  0  0  0999 V2000
  -36.1730  156.8080    7.1090 C   0  0  0  0  0  0  0  0  0  0  0  0
  -36.7370  157.0550    5.7390 C   0  0  0  0  0  0  0  0  0  0  0  0
  -36.7100  158.3620    5.2310 C   0  0  0  0  0  0  0  0  0  0  0  0
  -37.2040  158.6560    3.9540 C   0  0  0  0  0  0  0  0  0  0  0  0
  -37.7370  157.6610    3.1330 C   0  0  0  0  0  0  0  0  0  0  0  0
  -38.2330  157.8910    1.8470 N   0  0  0  0  0  0  0  0  0  0  0  0
  -39.2560  158.6780    1.3260 C   0  0  0  0  0  0  0  0  0  0  0  0
  -40.5470  158.3540    1.4630 N   0  0  0  0  0  0  0  0  0  0  0  0
  -41.4460  159.1770    0.9010 C   0  0  0  0  0  0  0  0  0  0  0  0
  -41.1050  160.3180    0.2220 C   0  0  0  0  0  0  0  0  0  0  0  0
  -39.7560  160.6000    0.1350 C   0  0  0  0  0  0  0  0  0  0  0  0
  -39.3260  161.7650   -0.5670 N   0  0  0  0  0  0  0  0  0  0  0  0
  -38.4420  162.5840    0.2690 C   0  0  0  0  0  0  0  0  0  0  0  0
  -39.0840  161.7680   -1.9790 C   0  0  0  0  0  0  0  0  0  0  0  0
  -38.9110  160.5470   -2.7330 C   0  0  0  0  0  0  0  0  0  0  0  0
  -38.6460  160.4700   -4.1220 C   0  0  0  0  0  0  0  0  0  0  0  0
  -38.5590  161.7330   -4.6910 C   0  0  0  0  0  0  0  0  0  0  0  0
  -38.3110  162.0110   -6.0140 C   0  0  0  0  0  0  0  0  0  0  0  0
  -38.0680  161.1530   -7.1980 C   0  0  0  0  0  0  0  0  0  0  0  0
  -38.3320  163.3850   -6.0720 N   0  0  0  0  0  0  0  0  0  0  0  0
  -38.1330  164.2050   -7.2450 C   0  0  0  0  0  0  0  0  0  0  0  0
  -38.5540  163.9920   -4.8890 N   0  0  0  0  0  0  0  0  0  0  0  0
  -38.7100  162.9900   -4.0090 C   0  0  0  0  0  0  0  0  0  0  0  0
  -38.9730  163.0320   -2.6300 C   0  0  0  0  0  0  0  0  0  0  0  0
  -38.8390  159.7770    0.6800 N   0  0  0  0  0  0  0  0  0  0  0  0
  -37.7510  156.3510    3.6330 C   0  0  0  0  0  0  0  0  0  0  0  0
  -37.2640  156.0460    4.9170 C   0  0  0  0  0  0  0  0  0  0  0  0
  -37.3160  154.3440    5.4260 S   0  0  0  0  0  0  0  0  0  0  0  0
  -35.6850  153.9570    5.5530 N   0  0  0  0  0  0  0  0  0  0  0  0
  -37.8470  153.5290    4.3600 O   0  0  0  0  0  0  0  0  0  0  0  0
  -37.8260  154.2590    6.7750 O   0  0  0  0  0  0  0  0  0  0  0  0
  -36.9018  157.1272    7.8686 H   0  0  0  0  0  0  0  0  0  0  0  0
  -35.9624  155.7353    7.2309 H   0  0  0  0  0  0  0  0  0  0  0  0
  -35.2418  157.3807    7.2309 H   0  0  0  0  0  0  0  0  0  0  0  0
  -36.2927  159.1718    5.8475 H   0  0  0  0  0  0  0  0  0  0  0  0
  -37.1713  159.6936    3.5901 H   0  0  0  0  0  0  0  0  0  0  0  0
  -37.8400  157.3460    1.0920 H   0  0  0  0  0  0  0  0  0  0  0  0
  -42.5125  158.9226    0.9899 H   0  0  0  0  0  0  0  0  0  0  0  0
  -41.8647  160.9733   -0.2290 H   0  0  0  0  0  0  0  0  0  0  0  0
  -38.6546  162.3870    1.3301 H   0  0  0  0  0  0  0  0  0  0  0  0
  -37.3938  162.3308    0.0519 H   0  0  0  0  0  0  0  0  0  0  0  0
  -38.6146  163.6485    0.0519 H   0  0  0  0  0  0  0  0  0  0  0  0
  -38.9919  159.5984   -2.1819 H   0  0  0  0  0  0  0  0  0  0  0  0
  -38.5246  159.5292   -4.6789 H   0  0  0  0  0  0  0  0  0  0  0  0
  -37.7821  160.1437   -6.8670 H   0  0  0  0  0  0  0  0  0  0  0  0
  -38.9849  161.0945   -7.8029 H   0  0  0  0  0  0  0  0  0  0  0  0
  -37.2566  161.5840   -7.8029 H   0  0  0  0  0  0  0  0  0  0  0  0
  -37.8840  165.2312   -6.9370 H   0  0  0  0  0  0  0  0  0  0  0  0
  -37.3090  163.7922   -7.8455 H   0  0  0  0  0  0  0  0  0  0  0  0
  -39.0546  164.2158   -7.8455 H   0  0  0  0  0  0  0  0  0  0  0  0
  -39.0864  163.9812   -2.0857 H   0  0  0  0  0  0  0  0  0  0  0  0
  -38.1528  155.5417    3.0056 H   0  0  0  0  0  0  0  0  0  0  0  0
  -35.3810  153.4610    4.7150 H   0  0  0  0  0  0  0  0  0  0  0  0
  -35.5230  153.4440    6.4200 H   0  0  0  0  0  0  0  0  0  0  0  0
  1  2  1  0
  2  3  1  0
  3  4  2  0
  4  5  1  0
  5  6  1  0
  6  7  1  0
  7  8  2  0
  8  9  1  0
  9 10  2  0
 10 11  1  0
 11 12  1  0
 12 13  1  0
 12 14  1  0
 14 15  1  0
 15 16  2  0
 16 17  1  0
 17 18  2  0
 18 19  1  0
 18 20  1  0
 20 21  1  0
 20 22  1  0
 22 23  2  0
 23 24  1  0
 11 25  2  0
  5 26  2  0
 26 27  1  0
 27 28  1  0
 28 29  1  0
 28 30  2  0
 28 31  2  0
 27  2  2  0
 25  7  1  0
 24 14  2  0
 23 17  1  0
  1 32  1  0
  1 33  1  0
  1 34  1  0
  3 35  1  0
  4 36  1  0
  6 37  1  0
  9 38  1  0
 10 39  1  0
 13 40  1  0
 13 41  1  0
 13 42  1  0
 15 43  1  0
 16 44  1  0
 19 45  1  0
 19 46  1  0
 19 47  1  0
 21 48  1  0
 21 49  1  0
 21 50  1  0
 24 51  1  0
 26 52  1  0
 29 53  1  0
 29 54  1  0
M  END
>  <meeko>  (3) 
{"is_sidechain": false}

>  <vina_affinity_kcal_mol>  (3) 
-9.865

>  <pose_rank>  (3) 
3

$$$$

     RDKit          3D

 54 57  0  0  0  0  0  0  0  0999 V2000
  -42.2640  160.8010    0.2710 C   0  0  0  0  0  0  0  0  0  0  0  0
  -41.1790  159.9400    0.8530 C   0  0  0  0  0  0  0  0  0  0  0  0
  -41.5040  159.0770    1.9090 C   0  0  0  0  0  0  0  0  0  0  0  0
  -40.5430  158.2350    2.4830 C   0  0  0  0  0  0  0  0  0  0  0  0
  -39.2250  158.2180    2.0250 C   0  0  0  0  0  0  0  0  0  0  0  0
  -38.2260  157.3940    2.5490 N   0  0  0  0  0  0  0  0  0  0  0  0
  -37.4610  157.4120    3.7120 C   0  0  0  0  0  0  0  0  0  0  0  0
  -37.4740  158.4480    4.5600 N   0  0  0  0  0  0  0  0  0  0  0  0
  -36.6800  158.3630    5.6380 C   0  0  0  0  0  0  0  0  0  0  0  0
  -35.8870  157.2780    5.9100 C   0  0  0  0  0  0  0  0  0  0  0  0
  -35.9370  156.2390    5.0020 C   0  0  0  0  0  0  0  0  0  0  0  0
  -35.1300  155.0820    5.2150 N   0  0  0  0  0  0  0  0  0  0  0  0
  -33.8920  155.4290    5.9200 C   0  0  0  0  0  0  0  0  0  0  0  0
  -35.6920  153.7890    5.4720 C   0  0  0  0  0  0  0  0  0  0  0  0
  -37.1060  153.5930    5.6930 C   0  0  0  0  0  0  0  0  0  0  0  0
  -37.7290  152.3530    5.9750 C   0  0  0  0  0  0  0  0  0  0  0  0
  -36.8030  151.3210    6.0250 C   0  0  0  0  0  0  0  0  0  0  0  0
  -37.0760  149.9970    6.2770 C   0  0  0  0  0  0  0  0  0  0  0  0
  -38.3310  149.2610    6.5610 C   0  0  0  0  0  0  0  0  0  0  0  0
  -35.8450  149.3880    6.2110 N   0  0  0  0  0  0  0  0  0  0  0  0
  -35.5640  147.9830    6.3940 C   0  0  0  0  0  0  0  0  0  0  0  0
  -34.8190  150.2250    5.9560 N   0  0  0  0  0  0  0  0  0  0  0  0
  -35.3840  151.4360    5.8250 C   0  0  0  0  0  0  0  0  0  0  0  0
  -34.7960  152.6810    5.5470 C   0  0  0  0  0  0  0  0  0  0  0  0
  -36.7170  156.3120    3.9070 N   0  0  0  0  0  0  0  0  0  0  0  0
  -38.9010  159.0690    0.9590 C   0  0  0  0  0  0  0  0  0  0  0  0
  -39.8570  159.9230    0.3800 C   0  0  0  0  0  0  0  0  0  0  0  0
  -39.3270  160.9380   -0.9800 S   0  0  0  0  0  0  0  0  0  0  0  0
  -37.8680  160.2250   -1.4120 N   0  0  0  0  0  0  0  0  0  0  0  0
  -39.0100  162.2640   -0.5080 O   0  0  0  0  0  0  0  0  0  0  0  0
  -40.1980  160.7210   -2.1120 O   0  0  0  0  0  0  0  0  0  0  0  0
  -42.8435  161.2608    1.0851 H   0  0  0  0  0  0  0  0  0  0  0  0
  -41.8132  161.5898   -0.3491 H   0  0  0  0  0  0  0  0  0  0  0  0
  -42.9297  160.1827   -0.3491 H   0  0  0  0  0  0  0  0  0  0  0  0
  -42.5341  159.0608    2.2944 H   0  0  0  0  0  0  0  0  0  0  0  0
  -40.8334  157.5732    3.3123 H   0  0  0  0  0  0  0  0  0  0  0  0
  -37.9010  156.6310    1.9720 H   0  0  0  0  0  0  0  0  0  0  0  0
  -36.6643  159.2088    6.3411 H   0  0  0  0  0  0  0  0  0  0  0  0
  -35.2459  157.2375    6.8029 H   0  0  0  0  0  0  0  0  0  0  0  0
  -34.0626  155.3812    7.0056 H   0  0  0  0  0  0  0  0  0  0  0  0
  -33.1000  154.7182    5.6416 H   0  0  0  0  0  0  0  0  0  0  0  0
  -33.5848  156.4479    5.6416 H   0  0  0  0  0  0  0  0  0  0  0  0
  -37.7528  154.4811    5.6376 H   0  0  0  0  0  0  0  0  0  0  0  0
  -38.8098  152.2243    6.1342 H   0  0  0  0  0  0  0  0  0  0  0  0
  -38.4700  149.1795    7.6491 H   0  0  0  0  0  0  0  0  0  0  0  0
  -39.1815  149.8034    6.1223 H   0  0  0  0  0  0  0  0  0  0  0  0
  -38.2728  148.2539    6.1223 H   0  0  0  0  0  0  0  0  0  0  0  0
  -35.5184  147.7552    7.4692 H   0  0  0  0  0  0  0  0  0  0  0  0
  -36.3605  147.3858    5.9261 H   0  0  0  0  0  0  0  0  0  0  0  0
  -34.5991  147.7381    5.9261 H   0  0  0  0  0  0  0  0  0  0  0  0
  -33.7123  152.7947    5.3965 H   0  0  0  0  0  0  0  0  0  0  0  0
  -37.8737  159.0688    0.5657 H   0  0  0  0  0  0  0  0  0  0  0  0
  -37.9510  159.2100   -1.3650 H   0  0  0  0  0  0  0  0  0  0  0  0
  -37.1170  160.6070   -0.8340 H   0  0  0  0  0  0  0  0  0  0  0  0
  1  2  1  0
  2  3  1  0
  3  4  2  0
  4  5  1  0
  5  6  1  0
  6  7  1  0
  7  8  2  0
  8  9  1  0
  9 10  2  0
 10 11  1  0
 11 12  1  0
 12 13  1  0
 12 14  1  0
 14 15  1  0
 15 16  2  0
 16 17  1  0
 17 18  2  0
 18 19  1  0
 18 20  1  0
 20 21  1  0
 20 22  1  0
 22 23  2  0
 23 24  1  0
 11 25  2  0
  5 26  2  0
 26 27  1  0
 27 28  1  0
 28 29  1  0
 28 30  2  0
 28 31  2  0
 27  2  2  0
 25  7  1  0
 24 14  2  0
 23 17  1  0
  1 32  1  0
  1 33  1  0
  1 34  1  0
  3 35  1  0
  4 36  1  0
  6 37  1  0
  9 38  1  0
 10 39  1  0
 13 40  1  0
 13 41  1  0
 13 42  1  0
 15 43  1  0
 16 44  1  0
 19 45  1  0
 19 46  1  0
 19 47  1  0
 21 48  1  0
 21 49  1  0
 21 50  1  0
 24 51  1  0
 26 52  1  0
 29 53  1  0
 29 54  1  0
M  END
>  <meeko>  (4) 
{"is_sidechain": false}

>  <vina_affinity_kcal_mol>  (4) 
-9.832

>  <pose_rank>  (4) 
4

$$$$

     RDKit          3D

 54 57  0  0  0  0  0  0  0  0999 V2000
  -41.6620  158.3010    2.6690 C   0  0  0  0  0  0  0  0  0  0  0  0
  -41.1070  159.1950    1.5970 C   0  0  0  0  0  0  0  0  0  0  0  0
  -41.9960  160.0000    0.8710 C   0  0  0  0  0  0  0  0  0  0  0  0
  -41.5400  160.8690   -0.1290 C   0  0  0  0  0  0  0  0  0  0  0  0
  -40.1840  160.9730   -0.4390 C   0  0  0  0  0  0  0  0  0  0  0  0
  -39.6690  161.8280   -1.4160 N   0  0  0  0  0  0  0  0  0  0  0  0
  -39.3400  161.6830   -2.7600 C   0  0  0  0  0  0  0  0  0  0  0  0
  -39.3770  160.4970   -3.3810 N   0  0  0  0  0  0  0  0  0  0  0  0
  -39.0180  160.4740   -4.6740 C   0  0  0  0  0  0  0  0  0  0  0  0
  -38.6400  161.5910   -5.3740 C   0  0  0  0  0  0  0  0  0  0  0  0
  -38.6410  162.7820   -4.6760 C   0  0  0  0  0  0  0  0  0  0  0  0
  -38.2480  163.9830   -5.3370 N   0  0  0  0  0  0  0  0  0  0  0  0
  -37.2470  164.7110   -4.5500 C   0  0  0  0  0  0  0  0  0  0  0  0
  -38.1610  164.0830   -6.7630 C   0  0  0  0  0  0  0  0  0  0  0  0
  -38.0030  162.9220   -7.6090 C   0  0  0  0  0  0  0  0  0  0  0  0
  -37.8870  162.9440   -9.0200 C   0  0  0  0  0  0  0  0  0  0  0  0
  -37.9350  164.2410   -9.5120 C   0  0  0  0  0  0  0  0  0  0  0  0
  -37.8490  164.6110  -10.8330 C   0  0  0  0  0  0  0  0  0  0  0  0
  -37.6890  163.8400  -12.0900 C   0  0  0  0  0  0  0  0  0  0  0  0
  -37.9550  165.9820  -10.8000 N   0  0  0  0  0  0  0  0  0  0  0  0
  -37.9320  166.8790  -11.9310 C   0  0  0  0  0  0  0  0  0  0  0  0
  -38.0800  166.5020   -9.5620 N   0  0  0  0  0  0  0  0  0  0  0  0
  -38.0820  165.4430   -8.7380 C   0  0  0  0  0  0  0  0  0  0  0  0
  -38.1950  165.3880   -7.3390 C   0  0  0  0  0  0  0  0  0  0  0  0
  -38.9840  162.8220   -3.3740 N   0  0  0  0  0  0  0  0  0  0  0  0
  -39.2910  160.1800    0.2970 C   0  0  0  0  0  0  0  0  0  0  0  0
  -39.7390  159.3000    1.2980 C   0  0  0  0  0  0  0  0  0  0  0  0
  -38.5060  158.3670    2.1750 S   0  0  0  0  0  0  0  0  0  0  0  0
  -39.1120  156.8020    2.0870 N   0  0  0  0  0  0  0  0  0  0  0  0
  -38.5150  158.7310    3.5710 O   0  0  0  0  0  0  0  0  0  0  0  0
  -37.2850  158.3380    1.4040 O   0  0  0  0  0  0  0  0  0  0  0  0
  -41.4071  158.7116    3.6572 H   0  0  0  0  0  0  0  0  0  0  0  0
  -42.7557  158.2421    2.5674 H   0  0  0  0  0  0  0  0  0  0  0  0
  -41.2296  157.2947    2.5674 H   0  0  0  0  0  0  0  0  0  0  0  0
  -43.0726  159.9484    1.0907 H   0  0  0  0  0  0  0  0  0  0  0  0
  -42.2670  161.4824   -0.6815 H   0  0  0  0  0  0  0  0  0  0  0  0
  -39.3980  162.7580   -1.1260 H   0  0  0  0  0  0  0  0  0  0  0  0
  -39.0275  159.5080   -5.2001 H   0  0  0  0  0  0  0  0  0  0  0  0
  -38.3516  161.5407   -6.4343 H   0  0  0  0  0  0  0  0  0  0  0  0
  -37.4468  164.5657   -3.4781 H   0  0  0  0  0  0  0  0  0  0  0  0
  -36.2435  164.3303   -4.7908 H   0  0  0  0  0  0  0  0  0  0  0  0
  -37.3000  165.7830   -4.7908 H   0  0  0  0  0  0  0  0  0  0  0  0
  -37.9701  161.9394   -7.1157 H   0  0  0  0  0  0  0  0  0  0  0  0
  -37.7733  162.0471   -9.6467 H   0  0  0  0  0  0  0  0  0  0  0  0
  -37.4709  162.7889  -11.8502 H   0  0  0  0  0  0  0  0  0  0  0  0
  -38.6181  163.8972  -12.6760 H   0  0  0  0  0  0  0  0  0  0  0  0
  -36.8593  164.2622  -12.6760 H   0  0  0  0  0  0  0  0  0  0  0  0
  -37.9053  167.9190  -11.5737 H   0  0  0  0  0  0  0  0  0  0  0  0
  -37.0387  166.6777  -12.5405 H   0  0  0  0  0  0  0  0  0  0  0  0
  -38.8344  166.7237  -12.5405 H   0  0  0  0  0  0  0  0  0  0  0  0
  -38.3030  166.2947   -6.7256 H   0  0  0  0  0  0  0  0  0  0  0  0
  -38.2136  160.2483    0.0858 H   0  0  0  0  0  0  0  0  0  0  0  0
  -39.6560  156.6880    1.2320 H   0  0  0  0  0  0  0  0  0  0  0  0
  -39.6320  156.5880    2.9400 H   0  0  0  0  0  0  0  0  0  0  0  0
  1  2  1  0
  2  3  1  0
  3  4  2  0
  4  5  1  0
  5  6  1  0
  6  7  1  0
  7  8  2  0
  8  9  1  0
  9 10  2  0
 10 11  1  0
 11 12  1  0
 12 13  1  0
 12 14  1  0
 14 15  1  0
 15 16  2  0
 16 17  1  0
 17 18  2  0
 18 19  1  0
 18 20  1  0
 20 21  1  0
 20 22  1  0
 22 23  2  0
 23 24  1  0
 11 25  2  0
  5 26  2  0
 26 27  1  0
 27 28  1  0
 28 29  1  0
 28 30  2  0
 28 31  2  0
 27  2  2  0
 25  7  1  0
 24 14  2  0
 23 17  1  0
  1 32  1  0
  1 33  1  0
  1 34  1  0
  3 35  1  0
  4 36  1  0
  6 37  1  0
  9 38  1  0
 10 39  1  0
 13 40  1  0
 13 41  1  0
 13 42  1  0
 15 43  1  0
 16 44  1  0
 19 45  1  0
 19 46  1  0
 19 47  1  0
 21 48  1  0
 21 49  1  0
 21 50  1  0
 24 51  1  0
 26 52  1  0
 29 53  1  0
 29 54  1  0
M  END
>  <meeko>  (5) 
{"is_sidechain": false}

>  <vina_affinity_kcal_mol>  (5) 
-9.604

>  <pose_rank>  (5) 
5

$$$$

     RDKit          3D

 54 57  0  0  0  0  0  0  0  0999 V2000
  -34.0990  146.0510   -2.0590 C   0  0  0  0  0  0  0  0  0  0  0  0
  -34.2050  146.8010   -0.7630 C   0  0  0  0  0  0  0  0  0  0  0  0
  -33.4370  146.3650    0.3260 C   0  0  0  0  0  0  0  0  0  0  0  0
  -33.4770  147.0330    1.5570 C   0  0  0  0  0  0  0  0  0  0  0  0
  -34.2770  148.1590    1.7490 C   0  0  0  0  0  0  0  0  0  0  0  0
  -34.3490  148.8720    2.9480 N   0  0  0  0  0  0  0  0  0  0  0  0
  -35.2950  148.9730    3.9640 C   0  0  0  0  0  0  0  0  0  0  0  0
  -36.3210  148.1210    4.0720 N   0  0  0  0  0  0  0  0  0  0  0  0
  -37.1840  148.3290    5.0800 C   0  0  0  0  0  0  0  0  0  0  0  0
  -37.0500  149.3440    5.9910 C   0  0  0  0  0  0  0  0  0  0  0  0
  -35.9590  150.1750    5.8300 C   0  0  0  0  0  0  0  0  0  0  0  0
  -35.7620  151.2600    6.7350 N   0  0  0  0  0  0  0  0  0  0  0  0
  -35.2450  150.7810    8.0210 C   0  0  0  0  0  0  0  0  0  0  0  0
  -35.3430  152.5580    6.2990 C   0  0  0  0  0  0  0  0  0  0  0  0
  -33.9710  153.0000    6.4020 C   0  0  0  0  0  0  0  0  0  0  0  0
  -33.4870  154.2730    6.0160 C   0  0  0  0  0  0  0  0  0  0  0  0
  -34.5080  155.0750    5.5230 C   0  0  0  0  0  0  0  0  0  0  0  0
  -34.3780  156.3640    5.0660 C   0  0  0  0  0  0  0  0  0  0  0  0
  -33.2190  157.2810    4.9440 C   0  0  0  0  0  0  0  0  0  0  0  0
  -35.6540  156.7100    4.6860 N   0  0  0  0  0  0  0  0  0  0  0  0
  -36.0770  157.9720    4.1230 C   0  0  0  0  0  0  0  0  0  0  0  0
  -36.5770  155.7490    4.8870 N   0  0  0  0  0  0  0  0  0  0  0  0
  -35.8940  154.7120    5.3980 C   0  0  0  0  0  0  0  0  0  0  0  0
  -36.3420  153.4400    5.7900 C   0  0  0  0  0  0  0  0  0  0  0  0
  -35.0910  149.9900    4.8160 N   0  0  0  0  0  0  0  0  0  0  0  0
  -35.0340  148.6060    0.6570 C   0  0  0  0  0  0  0  0  0  0  0  0
  -35.0070  147.9400   -0.5820 C   0  0  0  0  0  0  0  0  0  0  0  0
  -35.9950  148.6180   -1.8950 S   0  0  0  0  0  0  0  0  0  0  0  0
  -35.7820  150.2720   -1.6870 N   0  0  0  0  0  0  0  0  0  0  0  0
  -37.3910  148.3510   -1.6470 O   0  0  0  0  0  0  0  0  0  0  0  0
  -35.3780  148.3190   -3.1670 O   0  0  0  0  0  0  0  0  0  0  0  0
  -33.9478  144.9812   -1.8523 H   0  0  0  0  0  0  0  0  0  0  0  0
  -35.0251  146.1854   -2.6372 H   0  0  0  0  0  0  0  0  0  0  0  0
  -33.2465  146.4368   -2.6372 H   0  0  0  0  0  0  0  0  0  0  0  0
  -32.7910  145.4820    0.2118 H   0  0  0  0  0  0  0  0  0  0  0  0
  -32.8635  146.6609    2.3908 H   0  0  0  0  0  0  0  0  0  0  0  0
  -33.6030  149.5230    3.1480 H   0  0  0  0  0  0  0  0  0  0  0  0
  -38.0431  147.6492    5.1795 H   0  0  0  0  0  0  0  0  0  0  0  0
  -37.7731  149.4890    6.8071 H   0  0  0  0  0  0  0  0  0  0  0  0
  -35.7829  151.2793    8.8410 H   0  0  0  0  0  0  0  0  0  0  0  0
  -35.3926  149.6934    8.0933 H   0  0  0  0  0  0  0  0  0  0  0  0
  -34.1718  151.0110    8.0933 H   0  0  0  0  0  0  0  0  0  0  0  0
  -33.2417  152.2876    6.8149 H   0  0  0  0  0  0  0  0  0  0  0  0
  -32.4358  154.5871    6.0963 H   0  0  0  0  0  0  0  0  0  0  0  0
  -32.8655  157.5607    5.9474 H   0  0  0  0  0  0  0  0  0  0  0  0
  -32.4086  156.7769    4.3970 H   0  0  0  0  0  0  0  0  0  0  0  0
  -33.5232  158.1856    4.3970 H   0  0  0  0  0  0  0  0  0  0  0  0
  -36.3127  158.6753    4.9353 H   0  0  0  0  0  0  0  0  0  0  0  0
  -35.2685  158.3861    3.5026 H   0  0  0  0  0  0  0  0  0  0  0  0
  -36.9717  157.8152    3.5026 H   0  0  0  0  0  0  0  0  0  0  0  0
  -37.3979  153.1422    5.7095 H   0  0  0  0  0  0  0  0  0  0  0  0
  -35.6649  149.4998    0.7717 H   0  0  0  0  0  0  0  0  0  0  0  0
  -36.5270  150.6450   -1.1000 H   0  0  0  0  0  0  0  0  0  0  0  0
  -35.7070  150.7230   -2.5990 H   0  0  0  0  0  0  0  0  0  0  0  0
  1  2  1  0
  2  3  1  0
  3  4  2  0
  4  5  1  0
  5  6  1  0
  6  7  1  0
  7  8  2  0
  8  9  1  0
  9 10  2  0
 10 11  1  0
 11 12  1  0
 12 13  1  0
 12 14  1  0
 14 15  1  0
 15 16  2  0
 16 17  1  0
 17 18  2  0
 18 19  1  0
 18 20  1  0
 20 21  1  0
 20 22  1  0
 22 23  2  0
 23 24  1  0
 11 25  2  0
  5 26  2  0
 26 27  1  0
 27 28  1  0
 28 29  1  0
 28 30  2  0
 28 31  2  0
 27  2  2  0
 25  7  1  0
 24 14  2  0
 23 17  1  0
  1 32  1  0
  1 33  1  0
  1 34  1  0
  3 35  1  0
  4 36  1  0
  6 37  1  0
  9 38  1  0
 10 39  1  0
 13 40  1  0
 13 41  1  0
 13 42  1  0
 15 43  1  0
 16 44  1  0
 19 45  1  0
 19 46  1  0
 19 47  1  0
 21 48  1  0
 21 49  1  0
 21 50  1  0
 24 51  1  0
 26 52  1  0
 29 53  1  0
 29 54  1  0
M  END
>  <meeko>  (6) 
{"is_sidechain": false}

>  <vina_affinity_kcal_mol>  (6) 
-9.089

>  <pose_rank>  (6) 
6

$$$$

     RDKit          3D

 54 57  0  0  0  0  0  0  0  0999 V2000
  -33.7710  146.3130   -1.9460 C   0  0  0  0  0  0  0  0  0  0  0  0
  -33.9990  147.0310   -0.6470 C   0  0  0  0  0  0  0  0  0  0  0  0
  -33.2190  146.6740    0.4610 C   0  0  0  0  0  0  0  0  0  0  0  0
  -33.3700  147.3170    1.6960 C   0  0  0  0  0  0  0  0  0  0  0  0
  -34.2990  148.3430    1.8720 C   0  0  0  0  0  0  0  0  0  0  0  0
  -34.4870  149.0290    3.0750 N   0  0  0  0  0  0  0  0  0  0  0  0
  -35.4630  149.0030    4.0670 C   0  0  0  0  0  0  0  0  0  0  0  0
  -36.4370  148.0850    4.0880 N   0  0  0  0  0  0  0  0  0  0  0  0
  -37.3350  148.1700    5.0820 C   0  0  0  0  0  0  0  0  0  0  0  0
  -37.2870  149.1260    6.0630 C   0  0  0  0  0  0  0  0  0  0  0  0
  -36.2450  150.0290    5.9900 C   0  0  0  0  0  0  0  0  0  0  0  0
  -36.1390  151.0590    6.9720 N   0  0  0  0  0  0  0  0  0  0  0  0
  -35.2460  150.6520    8.0620 C   0  0  0  0  0  0  0  0  0  0  0  0
  -36.1740  152.4500    6.6350 C   0  0  0  0  0  0  0  0  0  0  0  0
  -37.4000  153.2150    6.6400 C   0  0  0  0  0  0  0  0  0  0  0  0
  -37.5170  154.5830    6.2970 C   0  0  0  0  0  0  0  0  0  0  0  0
  -36.2880  155.1200    5.9360 C   0  0  0  0  0  0  0  0  0  0  0  0
  -36.0540  156.4180    5.5470 C   0  0  0  0  0  0  0  0  0  0  0  0
  -36.9350  157.5990    5.3870 C   0  0  0  0  0  0  0  0  0  0  0  0
  -34.7000  156.4510    5.3070 N   0  0  0  0  0  0  0  0  0  0  0  0
  -33.9250  157.5910    4.8760 C   0  0  0  0  0  0  0  0  0  0  0  0
  -34.0700  155.2740    5.4950 N   0  0  0  0  0  0  0  0  0  0  0  0
  -35.0300  154.4260    5.8970 C   0  0  0  0  0  0  0  0  0  0  0  0
  -34.9490  153.0670    6.2440 C   0  0  0  0  0  0  0  0  0  0  0  0
  -35.3430  149.9680    4.9920 N   0  0  0  0  0  0  0  0  0  0  0  0
  -35.0710  148.7130    0.7620 C   0  0  0  0  0  0  0  0  0  0  0  0
  -34.9320  148.0690   -0.4810 C   0  0  0  0  0  0  0  0  0  0  0  0
  -35.9520  148.6450   -1.8170 S   0  0  0  0  0  0  0  0  0  0  0  0
  -35.7330  150.3090   -1.7440 N   0  0  0  0  0  0  0  0  0  0  0  0
  -37.3410  148.4020   -1.5140 O   0  0  0  0  0  0  0  0  0  0  0  0
  -35.3670  148.2460   -3.0770 O   0  0  0  0  0  0  0  0  0  0  0  0
  -33.4438  145.2826   -1.7429 H   0  0  0  0  0  0  0  0  0  0  0  0
  -34.7071  146.2934   -2.5233 H   0  0  0  0  0  0  0  0  0  0  0  0
  -32.9951  146.8370   -2.5233 H   0  0  0  0  0  0  0  0  0  0  0  0
  -32.4728  145.8723    0.3587 H   0  0  0  0  0  0  0  0  0  0  0  0
  -32.7431  147.0067    2.5449 H   0  0  0  0  0  0  0  0  0  0  0  0
  -33.8320  149.7650    3.2990 H   0  0  0  0  0  0  0  0  0  0  0  0
  -38.1520  147.4340    5.1108 H   0  0  0  0  0  0  0  0  0  0  0  0
  -38.0382  149.1714    6.8653 H   0  0  0  0  0  0  0  0  0  0  0  0
  -35.7241  150.8699    9.0284 H   0  0  0  0  0  0  0  0  0  0  0  0
  -35.0446  149.5732    7.9875 H   0  0  0  0  0  0  0  0  0  0  0  0
  -34.2996  151.2077    7.9875 H   0  0  0  0  0  0  0  0  0  0  0  0
  -38.3201  152.6895    6.9354 H   0  0  0  0  0  0  0  0  0  0  0  0
  -38.4603  155.1485    6.3141 H   0  0  0  0  0  0  0  0  0  0  0  0
  -37.2199  157.9809    6.3784 H   0  0  0  0  0  0  0  0  0  0  0  0
  -36.3996  158.3833    4.8319 H   0  0  0  0  0  0  0  0  0  0  0  0
  -37.8394  157.3093    4.8319 H   0  0  0  0  0  0  0  0  0  0  0  0
  -33.5543  158.1364    5.7564 H   0  0  0  0  0  0  0  0  0  0  0  0
  -33.0725  157.2475    4.2717 H   0  0  0  0  0  0  0  0  0  0  0  0
  -34.5580  158.2574    4.2717 H   0  0  0  0  0  0  0  0  0  0  0  0
  -33.9992  152.5129    6.2159 H   0  0  0  0  0  0  0  0  0  0  0  0
  -35.8036  149.5270    0.8654 H   0  0  0  0  0  0  0  0  0  0  0  0
  -34.8510  150.5220   -1.2780 H   0  0  0  0  0  0  0  0  0  0  0  0
  -36.5480  150.7420   -1.3080 H   0  0  0  0  0  0  0  0  0  0  0  0
  1  2  1  0
  2  3  1  0
  3  4  2  0
  4  5  1  0
  5  6  1  0
  6  7  1  0
  7  8  2  0
  8  9  1  0
  9 10  2  0
 10 11  1  0
 11 12  1  0
 12 13  1  0
 12 14  1  0
 14 15  1  0
 15 16  2  0
 16 17  1  0
 17 18  2  0
 18 19  1  0
 18 20  1  0
 20 21  1  0
 20 22  1  0
 22 23  2  0
 23 24  1  0
 11 25  2  0
  5 26  2  0
 26 27  1  0
 27 28  1  0
 28 29  1  0
 28 30  2  0
 28 31  2  0
 27  2  2  0
 25  7  1  0
 24 14  2  0
 23 17  1  0
  1 32  1  0
  1 33  1  0
  1 34  1  0
  3 35  1  0
  4 36  1  0
  6 37  1  0
  9 38  1  0
 10 39  1  0
 13 40  1  0
 13 41  1  0
 13 42  1  0
 15 43  1  0
 16 44  1  0
 19 45  1  0
 19 46  1  0
 19 47  1  0
 21 48  1  0
 21 49  1  0
 21 50  1  0
 24 51  1  0
 26 52  1  0
 29 53  1  0
 29 54  1  0
M  END
>  <meeko>  (7) 
{"is_sidechain": false}

>  <vina_affinity_kcal_mol>  (7) 
-9.007

>  <pose_rank>  (7) 
7

$$$$

     RDKit          3D

 54 57  0  0  0  0  0  0  0  0999 V2000
  -37.7470  165.2900   -5.4520 C   0  0  0  0  0  0  0  0  0  0  0  0
  -38.2270  164.2510   -4.4800 C   0  0  0  0  0  0  0  0  0  0  0  0
  -38.5230  164.6480   -3.1680 C   0  0  0  0  0  0  0  0  0  0  0  0
  -38.9910  163.7310   -2.2190 C   0  0  0  0  0  0  0  0  0  0  0  0
  -39.1870  162.3880   -2.5400 C   0  0  0  0  0  0  0  0  0  0  0  0
  -39.6630  161.4300   -1.6400 N   0  0  0  0  0  0  0  0  0  0  0  0
  -39.1570  160.2370   -1.1330 C   0  0  0  0  0  0  0  0  0  0  0  0
  -38.5360  159.3380   -1.9060 N   0  0  0  0  0  0  0  0  0  0  0  0
  -38.1080  158.2140   -1.3110 C   0  0  0  0  0  0  0  0  0  0  0  0
  -38.2630  157.9610    0.0280 C   0  0  0  0  0  0  0  0  0  0  0  0
  -38.8960  158.9400    0.7680 C   0  0  0  0  0  0  0  0  0  0  0  0
  -39.1020  158.7400    2.1650 N   0  0  0  0  0  0  0  0  0  0  0  0
  -40.5290  158.5880    2.4680 C   0  0  0  0  0  0  0  0  0  0  0  0
  -38.1760  158.0150    2.9830 C   0  0  0  0  0  0  0  0  0  0  0  0
  -36.9440  158.6020    3.4580 C   0  0  0  0  0  0  0  0  0  0  0  0
  -35.9710  157.9430    4.2480 C   0  0  0  0  0  0  0  0  0  0  0  0
  -36.3390  156.6320    4.5140 C   0  0  0  0  0  0  0  0  0  0  0  0
  -35.6190  155.7210    5.2510 C   0  0  0  0  0  0  0  0  0  0  0  0
  -34.3180  155.7960    5.9570 C   0  0  0  0  0  0  0  0  0  0  0  0
  -36.4000  154.5880    5.2290 N   0  0  0  0  0  0  0  0  0  0  0  0
  -36.1080  153.3240    5.8640 C   0  0  0  0  0  0  0  0  0  0  0  0
  -37.5420  154.7100    4.5220 N   0  0  0  0  0  0  0  0  0  0  0  0
  -37.5390  155.9750    4.0720 C   0  0  0  0  0  0  0  0  0  0  0  0
  -38.4850  156.6570    3.2900 C   0  0  0  0  0  0  0  0  0  0  0  0
  -39.3450  160.0680    0.1850 N   0  0  0  0  0  0  0  0  0  0  0  0
  -38.9070  161.9910   -3.8550 C   0  0  0  0  0  0  0  0  0  0  0  0
  -38.4300  162.9020   -4.8150 C   0  0  0  0  0  0  0  0  0  0  0  0
  -38.1330  162.2810   -6.4530 S   0  0  0  0  0  0  0  0  0  0  0  0
  -36.4550  162.2120   -6.5130 N   0  0  0  0  0  0  0  0  0  0  0  0
  -38.5370  163.2620   -7.4310 O   0  0  0  0  0  0  0  0  0  0  0  0
  -38.5670  160.9050   -6.5330 O   0  0  0  0  0  0  0  0  0  0  0  0
  -37.3482  166.1531   -4.8989 H   0  0  0  0  0  0  0  0  0  0  0  0
  -36.9552  164.8623   -6.0846 H   0  0  0  0  0  0  0  0  0  0  0  0
  -38.5859  165.6157   -6.0846 H   0  0  0  0  0  0  0  0  0  0  0  0
  -38.3848  165.7003   -2.8788 H   0  0  0  0  0  0  0  0  0  0  0  0
  -39.2088  164.0774   -1.1980 H   0  0  0  0  0  0  0  0  0  0  0  0
  -40.6040  161.5450   -1.2930 H   0  0  0  0  0  0  0  0  0  0  0  0
  -37.6063  157.4555   -1.9299 H   0  0  0  0  0  0  0  0  0  0  0  0
  -37.9026  157.0288    0.4875 H   0  0  0  0  0  0  0  0  0  0  0  0
  -40.6727  158.5727    3.5585 H   0  0  0  0  0  0  0  0  0  0  0  0
  -41.0874  159.4317    2.0364 H   0  0  0  0  0  0  0  0  0  0  0  0
  -40.8971  157.6456    2.0364 H   0  0  0  0  0  0  0  0  0  0  0  0
  -36.7454  159.6484    3.1829 H   0  0  0  0  0  0  0  0  0  0  0  0
  -35.0418  158.4109    4.6053 H   0  0  0  0  0  0  0  0  0  0  0  0
  -34.4893  155.7861    7.0435 H   0  0  0  0  0  0  0  0  0  0  0  0
  -33.6978  154.9321    5.6757 H   0  0  0  0  0  0  0  0  0  0  0  0
  -33.8012  156.7254    5.6757 H   0  0  0  0  0  0  0  0  0  0  0  0
  -36.1365  153.4474    6.9567 H   0  0  0  0  0  0  0  0  0  0  0  0
  -36.8577  152.5788    5.5595 H   0  0  0  0  0  0  0  0  0  0  0  0
  -35.1075  152.9832    5.5595 H   0  0  0  0  0  0  0  0  0  0  0  0
  -39.4075  156.1737    2.9360 H   0  0  0  0  0  0  0  0  0  0  0  0
  -39.0642  160.9412   -4.1433 H   0  0  0  0  0  0  0  0  0  0  0  0
  -36.1220  161.4160   -5.9690 H   0  0  0  0  0  0  0  0  0  0  0  0
  -36.0660  163.1080   -6.2170 H   0  0  0  0  0  0  0  0  0  0  0  0
  1  2  1  0
  2  3  1  0
  3  4  2  0
  4  5  1  0
  5  6  1  0
  6  7  1  0
  7  8  2  0
  8  9  1  0
  9 10  2  0
 10 11  1  0
 11 12  1  0
 12 13  1  0
 12 14  1  0
 14 15  1  0
 15 16  2  0
 16 17  1  0
 17 18  2  0
 18 19  1  0
 18 20  1  0
 20 21  1  0
 20 22  1  0
 22 23  2  0
 23 24  1  0
 11 25  2  0
  5 26  2  0
 26 27  1  0
 27 28  1  0
 28 29  1  0
 28 30  2  0
 28 31  2  0
 27  2  2  0
 25  7  1  0
 24 14  2  0
 23 17  1  0
  1 32  1  0
  1 33  1  0
  1 34  1  0
  3 35  1  0
  4 36  1  0
  6 37  1  0
  9 38  1  0
 10 39  1  0
 13 40  1  0
 13 41  1  0
 13 42  1  0
 15 43  1  0
 16 44  1  0
 19 45  1  0
 19 46  1  0
 19 47  1  0
 21 48  1  0
 21 49  1  0
 21 50  1  0
 24 51  1  0
 26 52  1  0
 29 53  1  0
 29 54  1  0
M  END
>  <meeko>  (8) 
{"is_sidechain": false}

>  <vina_affinity_kcal_mol>  (8) 
-8.945

>  <pose_rank>  (8) 
8

$$$$

     RDKit          3D

 54 57  0  0  0  0  0  0  0  0999 V2000
  -38.1430  146.1020   -1.6350 C   0  0  0  0  0  0  0  0  0  0  0  0
  -37.8280  146.9210   -0.4160 C   0  0  0  0  0  0  0  0  0  0  0  0
  -38.4540  146.5890    0.7930 C   0  0  0  0  0  0  0  0  0  0  0  0
  -38.1900  147.3010    1.9690 C   0  0  0  0  0  0  0  0  0  0  0  0
  -37.2890  148.3670    1.9870 C   0  0  0  0  0  0  0  0  0  0  0  0
  -36.9760  149.1060    3.1310 N   0  0  0  0  0  0  0  0  0  0  0  0
  -36.1130  148.9160    4.2050 C   0  0  0  0  0  0  0  0  0  0  0  0
  -35.3160  147.8450    4.3020 N   0  0  0  0  0  0  0  0  0  0  0  0
  -34.5410  147.7570    5.3940 C   0  0  0  0  0  0  0  0  0  0  0  0
  -34.5200  148.7060    6.3840 C   0  0  0  0  0  0  0  0  0  0  0  0
  -35.3530  149.7930    6.2100 C   0  0  0  0  0  0  0  0  0  0  0  0
  -35.3910  150.8140    7.2060 N   0  0  0  0  0  0  0  0  0  0  0  0
  -34.9640  150.2910    8.5080 C   0  0  0  0  0  0  0  0  0  0  0  0
  -35.0880  152.1830    6.9150 C   0  0  0  0  0  0  0  0  0  0  0  0
  -33.8710  152.5770    6.2430 C   0  0  0  0  0  0  0  0  0  0  0  0
  -33.4910  153.9070    5.9430 C   0  0  0  0  0  0  0  0  0  0  0  0
  -34.4410  154.8170    6.3890 C   0  0  0  0  0  0  0  0  0  0  0  0
  -34.3780  156.1840    6.2580 C   0  0  0  0  0  0  0  0  0  0  0  0
  -33.3760  157.0960    5.6580 C   0  0  0  0  0  0  0  0  0  0  0  0
  -35.5420  156.6250    6.8430 N   0  0  0  0  0  0  0  0  0  0  0  0
  -35.9820  157.9950    6.9700 C   0  0  0  0  0  0  0  0  0  0  0  0
  -36.3210  155.6460    7.3460 N   0  0  0  0  0  0  0  0  0  0  0  0
  -35.6670  154.5060    7.0710 C   0  0  0  0  0  0  0  0  0  0  0  0
  -36.0150  153.1740    7.3520 C   0  0  0  0  0  0  0  0  0  0  0  0
  -36.1490  149.8900    5.1280 N   0  0  0  0  0  0  0  0  0  0  0  0
  -36.6500  148.6910    0.7820 C   0  0  0  0  0  0  0  0  0  0  0  0
  -36.9130  147.9860   -0.4060 C   0  0  0  0  0  0  0  0  0  0  0  0
  -36.0210  148.4800   -1.8620 S   0  0  0  0  0  0  0  0  0  0  0  0
  -35.2480  149.8820   -1.3510 N   0  0  0  0  0  0  0  0  0  0  0  0
  -36.9480  148.8780   -2.8940 O   0  0  0  0  0  0  0  0  0  0  0  0
  -34.9560  147.5380   -2.1180 O   0  0  0  0  0  0  0  0  0  0  0  0
  -38.5221  145.1165   -1.3267 H   0  0  0  0  0  0  0  0  0  0  0  0
  -38.9071  146.6173   -2.2355 H   0  0  0  0  0  0  0  0  0  0  0  0
  -37.2305  145.9724   -2.2355 H   0  0  0  0  0  0  0  0  0  0  0  0
  -39.1673  145.7520    0.8184 H   0  0  0  0  0  0  0  0  0  0  0  0
  -38.7035  147.0143    2.8986 H   0  0  0  0  0  0  0  0  0  0  0  0
  -37.5080  149.9480    3.3000 H   0  0  0  0  0  0  0  0  0  0  0  0
  -33.8885  146.8779    5.5007 H   0  0  0  0  0  0  0  0  0  0  0  0
  -33.8742  148.6063    7.2689 H   0  0  0  0  0  0  0  0  0  0  0  0
  -35.4395  150.8734    9.3109 H   0  0  0  0  0  0  0  0  0  0  0  0
  -35.2618  149.2357    8.5948 H   0  0  0  0  0  0  0  0  0  0  0  0
  -33.8704  150.3717    8.5948 H   0  0  0  0  0  0  0  0  0  0  0  0
  -33.1816  151.7756    5.9389 H   0  0  0  0  0  0  0  0  0  0  0  0
  -32.5622  154.1845    5.4231 H   0  0  0  0  0  0  0  0  0  0  0  0
  -32.8175  157.6043    6.4578 H   0  0  0  0  0  0  0  0  0  0  0  0
  -32.6788  156.5161    5.0354 H   0  0  0  0  0  0  0  0  0  0  0  0
  -33.8879  157.8446    5.0354 H   0  0  0  0  0  0  0  0  0  0  0  0
  -36.0658  158.2559    8.0353 H   0  0  0  0  0  0  0  0  0  0  0  0
  -35.2525  158.6608    6.4857 H   0  0  0  0  0  0  0  0  0  0  0  0
  -36.9628  158.1115    6.4857 H   0  0  0  0  0  0  0  0  0  0  0  0
  -36.9455  152.9120    7.8769 H   0  0  0  0  0  0  0  0  0  0  0  0
  -35.9245  149.5176    0.7654 H   0  0  0  0  0  0  0  0  0  0  0  0
  -35.4980  150.0820   -0.3830 H   0  0  0  0  0  0  0  0  0  0  0  0
  -35.4570  150.6430   -1.9990 H   0  0  0  0  0  0  0  0  0  0  0  0
  1  2  1  0
  2  3  1  0
  3  4  2  0
  4  5  1  0
  5  6  1  0
  6  7  1  0
  7  8  2  0
  8  9  1  0
  9 10  2  0
 10 11  1  0
 11 12  1  0
 12 13  1  0
 12 14  1  0
 14 15  1  0
 15 16  2  0
 16 17  1  0
 17 18  2  0
 18 19  1  0
 18 20  1  0
 20 21  1  0
 20 22  1  0
 22 23  2  0
 23 24  1  0
 11 25  2  0
  5 26  2  0
 26 27  1  0
 27 28  1  0
 28 29  1  0
 28 30  2  0
 28 31  2  0
 27  2  2  0
 25  7  1  0
 24 14  2  0
 23 17  1  0
  1 32  1  0
  1 33  1  0
  1 34  1  0
  3 35  1  0
  4 36  1  0
  6 37  1  0
  9 38  1  0
 10 39  1  0
 13 40  1  0
 13 41  1  0
 13 42  1  0
 15 43  1  0
 16 44  1  0
 19 45  1  0
 19 46  1  0
 19 47  1  0
 21 48  1  0
 21 49  1  0
 21 50  1  0
 24 51  1  0
 26 52  1  0
 29 53  1  0
 29 54  1  0
M  END
>  <meeko>  (9) 
{"is_sidechain": false}

>  <vina_affinity_kcal_mol>  (9) 
-8.801

>  <pose_rank>  (9) 
9

$$$$

     RDKit          3D

 54 57  0  0  0  0  0  0  0  0999 V2000
  -33.6990  157.5210    4.7660 C   0  0  0  0  0  0  0  0  0  0  0  0
  -34.2180  156.1820    5.2070 C   0  0  0  0  0  0  0  0  0  0  0  0
  -33.3040  155.2370    5.6920 C   0  0  0  0  0  0  0  0  0  0  0  0
  -33.7270  153.9770    6.1350 C   0  0  0  0  0  0  0  0  0  0  0  0
  -35.0740  153.6140    6.1160 C   0  0  0  0  0  0  0  0  0  0  0  0
  -35.5560  152.3780    6.5550 N   0  0  0  0  0  0  0  0  0  0  0  0
  -36.1840  151.3030    5.9340 C   0  0  0  0  0  0  0  0  0  0  0  0
  -37.5160  151.2190    5.8250 N   0  0  0  0  0  0  0  0  0  0  0  0
  -38.0110  150.1260    5.2240 C   0  0  0  0  0  0  0  0  0  0  0  0
  -37.2270  149.1230    4.7140 C   0  0  0  0  0  0  0  0  0  0  0  0
  -35.8620  149.2840    4.8450 C   0  0  0  0  0  0  0  0  0  0  0  0
  -34.9860  148.2740    4.3480 N   0  0  0  0  0  0  0  0  0  0  0  0
  -34.8750  147.1630    5.2980 C   0  0  0  0  0  0  0  0  0  0  0  0
  -34.8870  147.9600    2.9540 C   0  0  0  0  0  0  0  0  0  0  0  0
  -34.0900  146.8570    2.4670 C   0  0  0  0  0  0  0  0  0  0  0  0
  -33.9250  146.5000    1.1070 C   0  0  0  0  0  0  0  0  0  0  0  0
  -34.6280  147.3570    0.2700 C   0  0  0  0  0  0  0  0  0  0  0  0
  -34.6790  147.2890   -1.1020 C   0  0  0  0  0  0  0  0  0  0  0  0
  -34.0650  146.3720   -2.0910 C   0  0  0  0  0  0  0  0  0  0  0  0
  -35.4990  148.3360   -1.4530 N   0  0  0  0  0  0  0  0  0  0  0  0
  -35.8940  148.7140   -2.7900 C   0  0  0  0  0  0  0  0  0  0  0  0
  -35.9500  149.0660   -0.4140 N   0  0  0  0  0  0  0  0  0  0  0  0
  -35.4330  148.4760    0.6760 C   0  0  0  0  0  0  0  0  0  0  0  0
  -35.5770  148.8040    2.0340 C   0  0  0  0  0  0  0  0  0  0  0  0
  -35.3480  150.3670    5.4590 N   0  0  0  0  0  0  0  0  0  0  0  0
  -35.9910  154.5630    5.6450 C   0  0  0  0  0  0  0  0  0  0  0  0
  -35.5770  155.8290    5.1920 C   0  0  0  0  0  0  0  0  0  0  0  0
  -36.8400  156.9510    4.6410 S   0  0  0  0  0  0  0  0  0  0  0  0
  -38.2320  156.0190    4.7740 N   0  0  0  0  0  0  0  0  0  0  0  0
  -36.6690  157.2310    3.2350 O   0  0  0  0  0  0  0  0  0  0  0  0
  -37.0040  158.0080    5.6120 O   0  0  0  0  0  0  0  0  0  0  0  0
  -33.4623  158.1317    5.6498 H   0  0  0  0  0  0  0  0  0  0  0  0
  -32.7899  157.3813    4.1627 H   0  0  0  0  0  0  0  0  0  0  0  0
  -34.4648  158.0305    4.1627 H   0  0  0  0  0  0  0  0  0  0  0  0
  -32.2339  155.4893    5.7255 H   0  0  0  0  0  0  0  0  0  0  0  0
  -32.9811  153.2585    6.5058 H   0  0  0  0  0  0  0  0  0  0  0  0
  -35.5230  152.1910    7.5480 H   0  0  0  0  0  0  0  0  0  0  0  0
  -39.1032  150.0295    5.1358 H   0  0  0  0  0  0  0  0  0  0  0  0
  -37.6622  148.2380    4.2268 H   0  0  0  0  0  0  0  0  0  0  0  0
  -34.9140  147.5538    6.3255 H   0  0  0  0  0  0  0  0  0  0  0  0
  -35.7075  146.4615    5.1407 H   0  0  0  0  0  0  0  0  0  0  0  0
  -33.9201  146.6400    5.1407 H   0  0  0  0  0  0  0  0  0  0  0  0
  -33.5678  146.2434    3.2159 H   0  0  0  0  0  0  0  0  0  0  0  0
  -33.3175  145.6521    0.7577 H   0  0  0  0  0  0  0  0  0  0  0  0
  -33.5280  145.5700   -1.5634 H   0  0  0  0  0  0  0  0  0  0  0  0
  -34.8519  145.9330   -2.7219 H   0  0  0  0  0  0  0  0  0  0  0  0
  -33.3593  146.9324   -2.7219 H   0  0  0  0  0  0  0  0  0  0  0  0
  -36.6878  149.4736   -2.7368 H   0  0  0  0  0  0  0  0  0  0  0  0
  -35.0265  149.1270   -3.3257 H   0  0  0  0  0  0  0  0  0  0  0  0
  -36.2685  147.8292   -3.3257 H   0  0  0  0  0  0  0  0  0  0  0  0
  -36.1841  149.6586    2.3674 H   0  0  0  0  0  0  0  0  0  0  0  0
  -37.0618  154.3118    5.6290 H   0  0  0  0  0  0  0  0  0  0  0  0
  -38.0330  155.0580    4.4970 H   0  0  0  0  0  0  0  0  0  0  0  0
  -38.9870  156.4550    4.2430 H   0  0  0  0  0  0  0  0  0  0  0  0
  1  2  1  0
  2  3  1  0
  3  4  2  0
  4  5  1  0
  5  6  1  0
  6  7  1  0
  7  8  2  0
  8  9  1  0
  9 10  2  0
 10 11  1  0
 11 12  1  0
 12 13  1  0
 12 14  1  0
 14 15  1  0
 15 16  2  0
 16 17  1  0
 17 18  2  0
 18 19  1  0
 18 20  1  0
 20 21  1  0
 20 22  1  0
 22 23  2  0
 23 24  1  0
 11 25  2  0
  5 26  2  0
 26 27  1  0
 27 28  1  0
 28 29  1  0
 28 30  2  0
 28 31  2  0
 27  2  2  0
 25  7  1  0
 24 14  2  0
 23 17  1  0
  1 32  1  0
  1 33  1  0
  1 34  1  0
  3 35  1  0
  4 36  1  0
  6 37  1  0
  9 38  1  0
 10 39  1  0
 13 40  1  0
 13 41  1  0
 13 42  1  0
 15 43  1  0
 16 44  1  0
 19 45  1  0
 19 46  1  0
 19 47  1  0
 21 48  1  0
 21 49  1  0
 21 50  1  0
 24 51  1  0
 26 52  1  0
 29 53  1  0
 29 54  1  0
M  END
>  <meeko>  (10) 
{"is_sidechain": false}

>  <vina_affinity_kcal_mol>  (10) 
-8.769

>  <pose_rank>  (10) 
10

$$$$
