
     RDKit          3D

 66 70  0  0  0  0  0  0  0  0999 V2000
   -9.6570    5.7250  -17.2860 C   0  0  0  0  0  0  0  0  0  0  0  0
   -8.6030    4.6680  -17.1030 C   0  0  0  0  0  0  0  0  0  0  0  0
   -7.4140    4.7420  -17.8460 C   0  0  0  0  0  0  0  0  0  0  0  0
   -6.4180    3.7760  -17.6940 C   0  0  0  0  0  0  0  0  0  0  0  0
   -6.5980    2.7140  -16.8020 C   0  0  0  0  0  0  0  0  0  0  0  0
   -5.5140    1.7020  -16.6720 C   0  0  0  0  0  0  0  0  0  0  0  0
   -4.3650    2.0990  -16.5190 O   0  0  0  0  0  0  0  0  0  0  0  0
   -5.9280    0.3860  -16.7810 N   0  0  0  0  0  0  0  0  0  0  0  0
   -5.1360   -0.7750  -16.6640 C   0  0  0  0  0  0  0  0  0  0  0  0
   -5.7230   -1.8870  -16.0570 C   0  0  0  0  0  0  0  0  0  0  0  0
   -5.0040   -3.0720  -15.8920 C   0  0  0  0  0  0  0  0  0  0  0  0
   -3.6730   -3.1760  -16.3300 C   0  0  0  0  0  0  0  0  0  0  0  0
   -2.9330   -4.4820  -16.1050 C   0  0  0  0  0  0  0  0  0  0  0  0
   -3.5650   -5.6070  -16.7960 N   0  0  0  0  0  0  0  0  0  0  0  0
   -4.1090   -6.5910  -15.8500 C   0  0  0  0  0  0  0  0  0  0  0  0
   -4.8940   -7.7280  -16.5580 C   0  0  0  0  0  0  0  0  0  0  0  0
   -4.4030   -8.1390  -17.8910 N   0  0  0  0  0  0  0  0  0  0  0  0
   -5.2160   -7.5380  -18.9510 C   0  0  0  0  0  0  0  0  0  0  0  0
   -2.9880   -7.7590  -18.0430 C   0  0  0  0  0  0  0  0  0  0  0  0
   -2.6600   -6.2680  -17.7600 C   0  0  0  0  0  0  0  0  0  0  0  0
   -3.0690   -2.0620  -16.9550 C   0  0  0  0  0  0  0  0  0  0  0  0
   -1.6320   -2.0730  -17.4440 C   0  0  0  0  0  0  0  0  0  0  0  0
   -1.3210   -0.9630  -18.1790 F   0  0  0  0  0  0  0  0  0  0  0  0
   -1.3310   -3.1180  -18.2660 F   0  0  0  0  0  0  0  0  0  0  0  0
   -0.7210   -2.0960  -16.4330 F   0  0  0  0  0  0  0  0  0  0  0  0
   -3.8140   -0.8700  -17.1000 C   0  0  0  0  0  0  0  0  0  0  0  0
   -7.7690    2.6430  -16.0370 C   0  0  0  0  0  0  0  0  0  0  0  0
   -8.7700    3.6110  -16.1910 C   0  0  0  0  0  0  0  0  0  0  0  0
   -9.9530    3.4910  -15.3910 C   0  0  0  0  0  0  0  0  0  0  0  0
  -10.9370    3.3760  -14.7130 C   0  0  0  0  0  0  0  0  0  0  0  0
  -12.0940    3.2320  -13.9030 C   0  0  0  0  0  0  0  0  0  0  0  0
  -13.2960    3.8980  -14.0000 C   0  0  0  0  0  0  0  0  0  0  0  0
  -14.1750    3.4850  -13.0290 N   0  0  0  0  0  0  0  0  0  0  0  0
  -13.5200    2.5760  -12.3400 C   0  0  0  0  0  0  0  0  0  0  0  0
  -13.9080    1.8040  -11.2210 C   0  0  0  0  0  0  0  0  0  0  0  0
  -13.0410    0.9310  -10.6950 C   0  0  0  0  0  0  0  0  0  0  0  0
  -11.7080    0.8280  -11.3360 C   0  0  0  0  0  0  0  0  0  0  0  0
  -11.2940    1.5030  -12.3610 N   0  0  0  0  0  0  0  0  0  0  0  0
  -12.2370    2.3780  -12.8370 N   0  0  0  0  0  0  0  0  0  0  0  0
  -10.0031    6.0721  -16.3012 H   0  0  0  0  0  0  0  0  0  0  0  0
   -9.2334    6.5722  -17.8453 H   0  0  0  0  0  0  0  0  0  0  0  0
  -10.5054    5.3039  -17.8453 H   0  0  0  0  0  0  0  0  0  0  0  0
   -7.2659    5.5697  -18.5552 H   0  0  0  0  0  0  0  0  0  0  0  0
   -5.4886    3.8503  -18.2776 H   0  0  0  0  0  0  0  0  0  0  0  0
   -6.8950    0.2310  -17.0400 H   0  0  0  0  0  0  0  0  0  0  0  0
   -6.7635   -1.8286  -15.7049 H   0  0  0  0  0  0  0  0  0  0  0  0
   -5.4862   -3.9365  -15.4123 H   0  0  0  0  0  0  0  0  0  0  0  0
   -1.9031   -4.3730  -16.4758 H   0  0  0  0  0  0  0  0  0  0  0  0
   -2.9521   -4.6971  -15.0264 H   0  0  0  0  0  0  0  0  0  0  0  0
   -3.2758   -7.0360  -15.2863 H   0  0  0  0  0  0  0  0  0  0  0  0
   -4.8109   -6.0637  -15.1872 H   0  0  0  0  0  0  0  0  0  0  0  0
   -4.8642   -8.6119  -15.9039 H   0  0  0  0  0  0  0  0  0  0  0  0
   -5.9012   -7.3214  -16.7318 H   0  0  0  0  0  0  0  0  0  0  0  0
   -6.0230   -6.9415  -18.5005 H   0  0  0  0  0  0  0  0  0  0  0  0
   -4.5839   -6.8884  -19.5742 H   0  0  0  0  0  0  0  0  0  0  0  0
   -5.6517   -8.3328  -19.5742 H   0  0  0  0  0  0  0  0  0  0  0  0
   -2.3960   -8.3735  -17.3487 H   0  0  0  0  0  0  0  0  0  0  0  0
   -2.7438   -7.9251  -19.1026 H   0  0  0  0  0  0  0  0  0  0  0  0
   -1.6361   -6.2123  -17.3619 H   0  0  0  0  0  0  0  0  0  0  0  0
   -2.7833   -5.7368  -18.7153 H   0  0  0  0  0  0  0  0  0  0  0  0
   -3.3397    0.0050  -17.5684 H   0  0  0  0  0  0  0  0  0  0  0  0
   -7.9031    1.8253  -15.3136 H   0  0  0  0  0  0  0  0  0  0  0  0
  -13.5226    4.6624  -14.7578 H   0  0  0  0  0  0  0  0  0  0  0  0
  -14.9122    1.9198  -10.7872 H   0  0  0  0  0  0  0  0  0  0  0  0
  -13.3063    0.3152   -9.8230 H   0  0  0  0  0  0  0  0  0  0  0  0
  -11.0013    0.1077  -10.8981 H   0  0  0  0  0  0  0  0  0  0  0  0
  1  2  1  0
  2  3  1  0
  3  4  2  0
  4  5  1  0
  5  6  1  0
  6  7  2  0
  6  8  1  0
  8  9  1  0
  9 10  1  0
 10 11  2  0
 11 12  1  0
 12 13  1  0
 13 14  1  0
 14 15  1  0
 15 16  1  0
 16 17  1  0
 17 18  1  0
 17 19  1  0
 19 20  1  0
 12 21  2  0
 21 22  1  0
 22 23  1  0
 22 24  1  0
 22 25  1  0
 21 26  1  0
  5 27  2  0
 27 28  1  0
 28 29  1  0
 29 30  3  0
 30 31  1  0
 31 32  2  0
 32 33  1  0
 33 34  2  0
 34 35  1  0
 35 36  2  0
 36 37  1  0
 37 38  2  0
 38 39  1  0
 28  2  2  0
 39 31  1  0
 26  9  2  0
 39 34  1  0
 20 14  1  0
  1 40  1  0
  1 41  1  0
  1 42  1  0
  3 43  1  0
  4 44  1  0
  8 45  1  0
 10 46  1  0
 11 47  1  0
 13 48  1  0
 13 49  1  0
 15 50  1  0
 15 51  1  0
 16 52  1  0
 16 53  1  0
 18 54  1  0
 18 55  1  0
 18 56  1  0
 19 57  1  0
 19 58  1  0
 20 59  1  0
 20 60  1  0
 26 61  1  0
 27 62  1  0
 32 63  1  0
 35 64  1  0
 36 65  1  0
 37 66  1  0
M  END
>  <meeko>  (1) 
{"is_sidechain": false}

>  <vina_affinity_kcal_mol>  (1) 
-10.224

>  <pose_rank>  (1) 
1

$$$$

     RDKit          3D

 66 70  0  0  0  0  0  0  0  0999 V2000
   -7.1140    2.1980  -17.8170 C   0  0  0  0  0  0  0  0  0  0  0  0
   -8.0090    1.7500  -16.6940 C   0  0  0  0  0  0  0  0  0  0  0  0
   -7.8990    0.4390  -16.2050 C   0  0  0  0  0  0  0  0  0  0  0  0
   -8.7150   -0.0020  -15.1610 C   0  0  0  0  0  0  0  0  0  0  0  0
   -9.6600    0.8590  -14.5950 C   0  0  0  0  0  0  0  0  0  0  0  0
  -10.5140    0.3490  -13.4860 C   0  0  0  0  0  0  0  0  0  0  0  0
  -10.6430   -0.8630  -13.3640 O   0  0  0  0  0  0  0  0  0  0  0  0
  -11.1190    1.3280  -12.7180 N   0  0  0  0  0  0  0  0  0  0  0  0
  -11.9450    1.1450  -11.5900 C   0  0  0  0  0  0  0  0  0  0  0  0
  -13.2870    1.5050  -11.7190 C   0  0  0  0  0  0  0  0  0  0  0  0
  -14.1690    1.3660  -10.6450 C   0  0  0  0  0  0  0  0  0  0  0  0
  -13.7290    0.8610   -9.4100 C   0  0  0  0  0  0  0  0  0  0  0  0
  -14.7280    0.7510   -8.2720 C   0  0  0  0  0  0  0  0  0  0  0  0
  -15.0610   -0.6380   -7.9550 N   0  0  0  0  0  0  0  0  0  0  0  0
  -15.1360   -1.4700   -9.1630 C   0  0  0  0  0  0  0  0  0  0  0  0
  -15.3620   -2.9710   -8.8410 C   0  0  0  0  0  0  0  0  0  0  0  0
  -16.1870   -3.2750   -7.6510 N   0  0  0  0  0  0  0  0  0  0  0  0
  -15.3400   -3.6260   -6.5090 C   0  0  0  0  0  0  0  0  0  0  0  0
  -17.0430   -2.1200   -7.3270 C   0  0  0  0  0  0  0  0  0  0  0  0
  -16.3060   -0.7620   -7.1670 C   0  0  0  0  0  0  0  0  0  0  0  0
  -12.3750    0.4830   -9.2680 C   0  0  0  0  0  0  0  0  0  0  0  0
  -11.8040   -0.0540   -7.9680 C   0  0  0  0  0  0  0  0  0  0  0  0
  -10.4370   -0.0840   -7.9710 F   0  0  0  0  0  0  0  0  0  0  0  0
  -12.1700   -1.3370   -7.6870 F   0  0  0  0  0  0  0  0  0  0  0  0
  -12.1410    0.6950   -6.8830 F   0  0  0  0  0  0  0  0  0  0  0  0
  -11.5000    0.6440  -10.3660 C   0  0  0  0  0  0  0  0  0  0  0  0
   -9.7620    2.1760  -15.0570 C   0  0  0  0  0  0  0  0  0  0  0  0
   -8.9450    2.6180  -16.1060 C   0  0  0  0  0  0  0  0  0  0  0  0
   -9.0900    3.9730  -16.5500 C   0  0  0  0  0  0  0  0  0  0  0  0
   -9.2260    5.1110  -16.9080 C   0  0  0  0  0  0  0  0  0  0  0  0
   -9.3880    6.4530  -17.3430 C   0  0  0  0  0  0  0  0  0  0  0  0
   -9.4770    7.5960  -16.5800 C   0  0  0  0  0  0  0  0  0  0  0  0
   -9.6340    8.7110  -17.3670 N   0  0  0  0  0  0  0  0  0  0  0  0
   -9.6450    8.2570  -18.6030 C   0  0  0  0  0  0  0  0  0  0  0  0
   -9.7820    8.9330  -19.8360 C   0  0  0  0  0  0  0  0  0  0  0  0
   -9.7600    8.2300  -20.9750 C   0  0  0  0  0  0  0  0  0  0  0  0
   -9.5880    6.7610  -20.8620 C   0  0  0  0  0  0  0  0  0  0  0  0
   -9.4560    6.0850  -19.7660 N   0  0  0  0  0  0  0  0  0  0  0  0
   -9.4940    6.8770  -18.6460 N   0  0  0  0  0  0  0  0  0  0  0  0
   -6.2035    2.6538  -17.4007 H   0  0  0  0  0  0  0  0  0  0  0  0
   -6.8400    1.3308  -18.4357 H   0  0  0  0  0  0  0  0  0  0  0  0
   -7.6440    2.9371  -18.4357 H   0  0  0  0  0  0  0  0  0  0  0  0
   -7.1629   -0.2477  -16.6484 H   0  0  0  0  0  0  0  0  0  0  0  0
   -8.6139   -1.0300  -14.7828 H   0  0  0  0  0  0  0  0  0  0  0  0
  -11.0160    2.2850  -13.0340 H   0  0  0  0  0  0  0  0  0  0  0  0
  -13.6541    1.9025  -12.6767 H   0  0  0  0  0  0  0  0  0  0  0  0
  -15.2230    1.6560  -10.7678 H   0  0  0  0  0  0  0  0  0  0  0  0
  -14.2977    1.2243   -7.3771 H   0  0  0  0  0  0  0  0  0  0  0  0
  -15.6536    1.2542   -8.5882 H   0  0  0  0  0  0  0  0  0  0  0  0
  -15.9704   -1.1136   -9.7849 H   0  0  0  0  0  0  0  0  0  0  0  0
  -14.1730   -1.3832   -9.6875 H   0  0  0  0  0  0  0  0  0  0  0  0
  -15.8515   -3.4296   -9.7128 H   0  0  0  0  0  0  0  0  0  0  0  0
  -14.3637   -3.3728   -8.6129 H   0  0  0  0  0  0  0  0  0  0  0  0
  -15.8750   -3.4043   -5.5738 H   0  0  0  0  0  0  0  0  0  0  0  0
  -15.0982   -4.6984   -6.5477 H   0  0  0  0  0  0  0  0  0  0  0  0
  -14.4105   -3.0390   -6.5477 H   0  0  0  0  0  0  0  0  0  0  0  0
  -17.7830   -2.0104   -8.1335 H   0  0  0  0  0  0  0  0  0  0  0  0
  -17.4854   -2.3398   -6.3442 H   0  0  0  0  0  0  0  0  0  0  0  0
  -16.9915    0.0389   -7.4811 H   0  0  0  0  0  0  0  0  0  0  0  0
  -16.0126   -0.6905   -6.1093 H   0  0  0  0  0  0  0  0  0  0  0  0
  -10.4414    0.3674  -10.2529 H   0  0  0  0  0  0  0  0  0  0  0  0
  -10.4847    2.8653  -14.5959 H   0  0  0  0  0  0  0  0  0  0  0  0
   -9.4286    7.6139  -15.4812 H   0  0  0  0  0  0  0  0  0  0  0  0
   -9.9055   10.0258  -19.8598 H   0  0  0  0  0  0  0  0  0  0  0  0
   -9.8651    8.7211  -21.9537 H   0  0  0  0  0  0  0  0  0  0  0  0
   -9.5709    6.1899  -21.8020 H   0  0  0  0  0  0  0  0  0  0  0  0
  1  2  1  0
  2  3  1  0
  3  4  2  0
  4  5  1  0
  5  6  1  0
  6  7  2  0
  6  8  1  0
  8  9  1  0
  9 10  1  0
 10 11  2  0
 11 12  1  0
 12 13  1  0
 13 14  1  0
 14 15  1  0
 15 16  1  0
 16 17  1  0
 17 18  1  0
 17 19  1  0
 19 20  1  0
 12 21  2  0
 21 22  1  0
 22 23  1  0
 22 24  1  0
 22 25  1  0
 21 26  1  0
  5 27  2  0
 27 28  1  0
 28 29  1  0
 29 30  3  0
 30 31  1  0
 31 32  2  0
 32 33  1  0
 33 34  2  0
 34 35  1  0
 35 36  2  0
 36 37  1  0
 37 38  2  0
 38 39  1  0
 28  2  2  0
 39 31  1  0
 26  9  2  0
 39 34  1  0
 20 14  1  0
  1 40  1  0
  1 41  1  0
  1 42  1  0
  3 43  1  0
  4 44  1  0
  8 45  1  0
 10 46  1  0
 11 47  1  0
 13 48  1  0
 13 49  1  0
 15 50  1  0
 15 51  1  0
 16 52  1  0
 16 53  1  0
 18 54  1  0
 18 55  1  0
 18 56  1  0
 19 57  1  0
 19 58  1  0
 20 59  1  0
 20 60  1  0
 26 61  1  0
 27 62  1  0
 32 63  1  0
 35 64  1  0
 36 65  1  0
 37 66  1  0
M  END
>  <meeko>  (2) 
{"is_sidechain": false}

>  <vina_affinity_kcal_mol>  (2) 
-10.208

>  <pose_rank>  (2) 
2

$$$$

     RDKit          3D

 66 70  0  0  0  0  0  0  0  0999 V2000
  -13.4890    4.1720  -14.1450 C   0  0  0  0  0  0  0  0  0  0  0  0
  -13.0220    3.0970  -13.2010 C   0  0  0  0  0  0  0  0  0  0  0  0
  -13.8870    2.6390  -12.1950 C   0  0  0  0  0  0  0  0  0  0  0  0
  -13.4800    1.6410  -11.3070 C   0  0  0  0  0  0  0  0  0  0  0  0
  -12.1990    1.0900  -11.4060 C   0  0  0  0  0  0  0  0  0  0  0  0
  -11.8020    0.0310  -10.4370 C   0  0  0  0  0  0  0  0  0  0  0  0
  -11.5600    0.3620   -9.2830 O   0  0  0  0  0  0  0  0  0  0  0  0
  -11.7070   -1.2420  -10.9720 N   0  0  0  0  0  0  0  0  0  0  0  0
  -11.3910   -2.4360  -10.2910 C   0  0  0  0  0  0  0  0  0  0  0  0
  -10.2340   -2.4370   -9.5110 C   0  0  0  0  0  0  0  0  0  0  0  0
   -9.8440   -3.5820   -8.8140 C   0  0  0  0  0  0  0  0  0  0  0  0
  -10.6040   -4.7620   -8.8810 C   0  0  0  0  0  0  0  0  0  0  0  0
  -10.1210   -5.9830   -8.1200 C   0  0  0  0  0  0  0  0  0  0  0  0
   -8.8090   -6.4420   -8.5770 N   0  0  0  0  0  0  0  0  0  0  0  0
   -8.8690   -7.8050   -9.1210 C   0  0  0  0  0  0  0  0  0  0  0  0
   -7.5160   -8.2660   -9.7280 C   0  0  0  0  0  0  0  0  0  0  0  0
   -6.2910   -7.7560   -9.0740 N   0  0  0  0  0  0  0  0  0  0  0  0
   -5.7280   -6.6350   -9.8290 C   0  0  0  0  0  0  0  0  0  0  0  0
   -6.5940   -7.3510   -7.6900 C   0  0  0  0  0  0  0  0  0  0  0  0
   -7.7730   -6.3540   -7.5260 C   0  0  0  0  0  0  0  0  0  0  0  0
  -11.7840   -4.7730   -9.6600 C   0  0  0  0  0  0  0  0  0  0  0  0
  -12.6590   -6.0040   -9.8080 C   0  0  0  0  0  0  0  0  0  0  0  0
  -13.4220   -5.9700  -10.9420 F   0  0  0  0  0  0  0  0  0  0  0  0
  -13.5600   -6.1720   -8.7980 F   0  0  0  0  0  0  0  0  0  0  0  0
  -11.9480   -7.1620   -9.8920 F   0  0  0  0  0  0  0  0  0  0  0  0
  -12.1510   -3.6040  -10.3640 C   0  0  0  0  0  0  0  0  0  0  0  0
  -11.3360    1.5220  -12.4210 C   0  0  0  0  0  0  0  0  0  0  0  0
  -11.7430    2.5250  -13.3100 C   0  0  0  0  0  0  0  0  0  0  0  0
  -10.8220    2.9380  -14.3280 C   0  0  0  0  0  0  0  0  0  0  0  0
  -10.0380    3.2710  -15.1740 C   0  0  0  0  0  0  0  0  0  0  0  0
   -9.1180    3.6750  -16.1780 C   0  0  0  0  0  0  0  0  0  0  0  0
   -7.8430    3.2090  -16.4080 C   0  0  0  0  0  0  0  0  0  0  0  0
   -7.2620    3.8510  -17.4750 N   0  0  0  0  0  0  0  0  0  0  0  0
   -8.1710    4.7050  -17.8940 C   0  0  0  0  0  0  0  0  0  0  0  0
   -8.1430    5.6400  -18.9540 C   0  0  0  0  0  0  0  0  0  0  0  0
   -9.2170    6.4070  -19.1800 C   0  0  0  0  0  0  0  0  0  0  0  0
  -10.3860    6.2170  -18.2870 C   0  0  0  0  0  0  0  0  0  0  0  0
  -10.4740    5.3790  -17.3040 N   0  0  0  0  0  0  0  0  0  0  0  0
   -9.3320    4.6360  -17.1360 N   0  0  0  0  0  0  0  0  0  0  0  0
  -13.8620    5.0306  -13.5673 H   0  0  0  0  0  0  0  0  0  0  0  0
  -12.6494    4.4934  -14.7788 H   0  0  0  0  0  0  0  0  0  0  0  0
  -14.2970    3.7777  -14.7788 H   0  0  0  0  0  0  0  0  0  0  0  0
  -14.8950    3.0702  -12.1052 H   0  0  0  0  0  0  0  0  0  0  0  0
  -14.1699    1.2871  -10.5267 H   0  0  0  0  0  0  0  0  0  0  0  0
  -11.8110   -1.3250  -11.9760 H   0  0  0  0  0  0  0  0  0  0  0  0
   -9.6222   -1.5252   -9.4445 H   0  0  0  0  0  0  0  0  0  0  0  0
   -8.9290   -3.5602   -8.2038 H   0  0  0  0  0  0  0  0  0  0  0  0
  -10.0543   -5.7298   -7.0516 H   0  0  0  0  0  0  0  0  0  0  0  0
  -10.8411   -6.7954   -8.2975 H   0  0  0  0  0  0  0  0  0  0  0  0
   -9.1452   -8.4958   -8.3108 H   0  0  0  0  0  0  0  0  0  0  0  0
   -9.6151   -7.8085   -9.9293 H   0  0  0  0  0  0  0  0  0  0  0  0
   -7.4864   -9.3647   -9.6825 H   0  0  0  0  0  0  0  0  0  0  0  0
   -7.4970   -7.8501  -10.7462 H   0  0  0  0  0  0  0  0  0  0  0  0
   -5.3470   -5.8764   -9.1295 H   0  0  0  0  0  0  0  0  0  0  0  0
   -4.9044   -6.9963  -10.4624 H   0  0  0  0  0  0  0  0  0  0  0  0
   -6.5096   -6.1901  -10.4624 H   0  0  0  0  0  0  0  0  0  0  0  0
   -6.8358   -8.2583   -7.1170 H   0  0  0  0  0  0  0  0  0  0  0  0
   -5.6999   -6.8220   -7.3285 H   0  0  0  0  0  0  0  0  0  0  0  0
   -8.2527   -6.5478   -6.5553 H   0  0  0  0  0  0  0  0  0  0  0  0
   -7.3394   -5.3459   -7.6017 H   0  0  0  0  0  0  0  0  0  0  0  0
  -13.0587   -3.6150  -10.9852 H   0  0  0  0  0  0  0  0  0  0  0  0
  -10.3368    1.0728  -12.5202 H   0  0  0  0  0  0  0  0  0  0  0  0
   -7.3525    2.4238  -15.8140 H   0  0  0  0  0  0  0  0  0  0  0  0
   -7.2482    5.7364  -19.5865 H   0  0  0  0  0  0  0  0  0  0  0  0
   -9.2318    7.1470  -19.9938 H   0  0  0  0  0  0  0  0  0  0  0  0
  -11.2646    6.8504  -18.4788 H   0  0  0  0  0  0  0  0  0  0  0  0
  1  2  1  0
  2  3  1  0
  3  4  2  0
  4  5  1  0
  5  6  1  0
  6  7  2  0
  6  8  1  0
  8  9  1  0
  9 10  1  0
 10 11  2  0
 11 12  1  0
 12 13  1  0
 13 14  1  0
 14 15  1  0
 15 16  1  0
 16 17  1  0
 17 18  1  0
 17 19  1  0
 19 20  1  0
 12 21  2  0
 21 22  1  0
 22 23  1  0
 22 24  1  0
 22 25  1  0
 21 26  1  0
  5 27  2  0
 27 28  1  0
 28 29  1  0
 29 30  3  0
 30 31  1  0
 31 32  2  0
 32 33  1  0
 33 34  2  0
 34 35  1  0
 35 36  2  0
 36 37  1  0
 37 38  2  0
 38 39  1  0
 28  2  2  0
 39 31  1  0
 26  9  2  0
 39 34  1  0
 20 14  1  0
  1 40  1  0
  1 41  1  0
  1 42  1  0
  3 43  1  0
  4 44  1  0
  8 45  1  0
 10 46  1  0
 11 47  1  0
 13 48  1  0
 13 49  1  0
 15 50  1  0
 15 51  1  0
 16 52  1  0
 16 53  1  0
 18 54  1  0
 18 55  1  0
 18 56  1  0
 19 57  1  0
 19 58  1  0
 20 59  1  0
 20 60  1  0
 26 61  1  0
 27 62  1  0
 32 63  1  0
 35 64  1  0
 36 65  1  0
 37 66  1  0
M  END
>  <meeko>  (3) 
{"is_sidechain": false}

>  <vina_affinity_kcal_mol>  (3) 
-9.974

>  <pose_rank>  (3) 
3

$$$$

     RDKit          3D

 66 70  0  0  0  0  0  0  0  0999 V2000
  -11.4700    5.0760  -15.7050 C   0  0  0  0  0  0  0  0  0  0  0  0
  -11.7320    4.1100  -14.5820 C   0  0  0  0  0  0  0  0  0  0  0  0
  -12.9690    4.1410  -13.9190 C   0  0  0  0  0  0  0  0  0  0  0  0
  -13.2390    3.2530  -12.8760 C   0  0  0  0  0  0  0  0  0  0  0  0
  -12.2740    2.3260  -12.4730 C   0  0  0  0  0  0  0  0  0  0  0  0
  -12.6000    1.3990  -11.3530 C   0  0  0  0  0  0  0  0  0  0  0  0
  -11.7140    0.6660  -10.9310 O   0  0  0  0  0  0  0  0  0  0  0  0
  -13.9150    1.4400  -10.9270 N   0  0  0  0  0  0  0  0  0  0  0  0
  -14.4980    0.7090   -9.8700 C   0  0  0  0  0  0  0  0  0  0  0  0
  -15.1680    1.4380   -8.8860 C   0  0  0  0  0  0  0  0  0  0  0  0
  -15.7620    0.7910   -7.8010 C   0  0  0  0  0  0  0  0  0  0  0  0
  -15.7010   -0.6070   -7.6700 C   0  0  0  0  0  0  0  0  0  0  0  0
  -16.3470   -1.2540   -6.4590 C   0  0  0  0  0  0  0  0  0  0  0  0
  -17.7320   -0.8210   -6.2680 N   0  0  0  0  0  0  0  0  0  0  0  0
  -18.1810   -1.0280   -4.8850 C   0  0  0  0  0  0  0  0  0  0  0  0
  -19.6020   -0.4600   -4.6270 C   0  0  0  0  0  0  0  0  0  0  0  0
  -20.5540   -0.5250   -5.7580 N   0  0  0  0  0  0  0  0  0  0  0  0
  -20.6520    0.7740   -6.4280 C   0  0  0  0  0  0  0  0  0  0  0  0
  -20.1330   -1.5690   -6.7080 C   0  0  0  0  0  0  0  0  0  0  0  0
  -18.6680   -1.4660   -7.2130 C   0  0  0  0  0  0  0  0  0  0  0  0
  -15.0340   -1.3580   -8.6650 C   0  0  0  0  0  0  0  0  0  0  0  0
  -14.8990   -2.8680   -8.6010 C   0  0  0  0  0  0  0  0  0  0  0  0
  -13.9170   -3.2700   -7.7380 F   0  0  0  0  0  0  0  0  0  0  0  0
  -14.5650   -3.4490   -9.7880 F   0  0  0  0  0  0  0  0  0  0  0  0
  -16.0290   -3.4900   -8.1660 F   0  0  0  0  0  0  0  0  0  0  0  0
  -14.4300   -0.6790   -9.7470 C   0  0  0  0  0  0  0  0  0  0  0  0
  -11.0460    2.2690  -13.1430 C   0  0  0  0  0  0  0  0  0  0  0  0
  -10.7730    3.1600  -14.1890 C   0  0  0  0  0  0  0  0  0  0  0  0
   -9.5000    3.0670  -14.8400 C   0  0  0  0  0  0  0  0  0  0  0  0
   -8.4280    2.9750  -15.3740 C   0  0  0  0  0  0  0  0  0  0  0  0
   -7.1630    2.8540  -16.0060 C   0  0  0  0  0  0  0  0  0  0  0  0
   -6.3090    3.8560  -16.4130 C   0  0  0  0  0  0  0  0  0  0  0  0
   -5.1750    3.3410  -16.9920 N   0  0  0  0  0  0  0  0  0  0  0  0
   -5.3320    2.0350  -16.9450 C   0  0  0  0  0  0  0  0  0  0  0  0
   -4.4970    0.9860  -17.3920 C   0  0  0  0  0  0  0  0  0  0  0  0
   -4.8900   -0.2830  -17.2230 C   0  0  0  0  0  0  0  0  0  0  0  0
   -6.2000   -0.5040  -16.5630 C   0  0  0  0  0  0  0  0  0  0  0  0
   -7.0070    0.4110  -16.1310 N   0  0  0  0  0  0  0  0  0  0  0  0
   -6.5340    1.6810  -16.3450 N   0  0  0  0  0  0  0  0  0  0  0  0
  -11.2035    6.0587  -15.2887 H   0  0  0  0  0  0  0  0  0  0  0  0
  -10.6406    4.7027  -16.3237 H   0  0  0  0  0  0  0  0  0  0  0  0
  -12.3743    5.1730  -16.3237 H   0  0  0  0  0  0  0  0  0  0  0  0
  -13.7326    4.8717  -14.2240 H   0  0  0  0  0  0  0  0  0  0  0  0
  -14.2150    3.2832  -12.3695 H   0  0  0  0  0  0  0  0  0  0  0  0
  -14.5550    2.0070  -11.4700 H   0  0  0  0  0  0  0  0  0  0  0  0
  -15.2285    2.5334   -8.9664 H   0  0  0  0  0  0  0  0  0  0  0  0
  -16.2857    1.3843   -7.0370 H   0  0  0  0  0  0  0  0  0  0  0  0
  -16.3333   -2.3458   -6.5923 H   0  0  0  0  0  0  0  0  0  0  0  0
  -15.7746   -0.9495   -5.5704 H   0  0  0  0  0  0  0  0  0  0  0  0
  -18.1899   -2.1078   -4.6755 H   0  0  0  0  0  0  0  0  0  0  0  0
  -17.4833   -0.4921   -4.2247 H   0  0  0  0  0  0  0  0  0  0  0  0
  -20.0397   -1.0223   -3.7890 H   0  0  0  0  0  0  0  0  0  0  0  0
  -19.4558    0.6124   -4.4306 H   0  0  0  0  0  0  0  0  0  0  0  0
  -20.7122    1.5721   -5.6734 H   0  0  0  0  0  0  0  0  0  0  0  0
  -19.7631    0.9302   -7.0568 H   0  0  0  0  0  0  0  0  0  0  0  0
  -21.5543    0.7951   -7.0568 H   0  0  0  0  0  0  0  0  0  0  0  0
  -20.2527   -2.5444   -6.2138 H   0  0  0  0  0  0  0  0  0  0  0  0
  -20.7674   -1.4399   -7.5973 H   0  0  0  0  0  0  0  0  0  0  0  0
  -18.3032   -2.4838   -7.4154 H   0  0  0  0  0  0  0  0  0  0  0  0
  -18.6927   -0.8285   -8.1091 H   0  0  0  0  0  0  0  0  0  0  0  0
  -13.8927   -1.2594  -10.5115 H   0  0  0  0  0  0  0  0  0  0  0  0
  -10.2938    1.5228  -12.8474 H   0  0  0  0  0  0  0  0  0  0  0  0
   -6.5098    4.9305  -16.2899 H   0  0  0  0  0  0  0  0  0  0  0  0
   -3.5338    1.2097  -17.8740 H   0  0  0  0  0  0  0  0  0  0  0  0
   -4.2679   -1.1256  -17.5593 H   0  0  0  0  0  0  0  0  0  0  0  0
   -6.5168   -1.5486  -16.4274 H   0  0  0  0  0  0  0  0  0  0  0  0
  1  2  1  0
  2  3  1  0
  3  4  2  0
  4  5  1  0
  5  6  1  0
  6  7  2  0
  6  8  1  0
  8  9  1  0
  9 10  1  0
 10 11  2  0
 11 12  1  0
 12 13  1  0
 13 14  1  0
 14 15  1  0
 15 16  1  0
 16 17  1  0
 17 18  1  0
 17 19  1  0
 19 20  1  0
 12 21  2  0
 21 22  1  0
 22 23  1  0
 22 24  1  0
 22 25  1  0
 21 26  1  0
  5 27  2  0
 27 28  1  0
 28 29  1  0
 29 30  3  0
 30 31  1  0
 31 32  2  0
 32 33  1  0
 33 34  2  0
 34 35  1  0
 35 36  2  0
 36 37  1  0
 37 38  2  0
 38 39  1  0
 28  2  2  0
 39 31  1  0
 26  9  2  0
 39 34  1  0
 20 14  1  0
  1 40  1  0
  1 41  1  0
  1 42  1  0
  3 43  1  0
  4 44  1  0
  8 45  1  0
 10 46  1  0
 11 47  1  0
 13 48  1  0
 13 49  1  0
 15 50  1  0
 15 51  1  0
 16 52  1  0
 16 53  1  0
 18 54  1  0
 18 55  1  0
 18 56  1  0
 19 57  1  0
 19 58  1  0
 20 59  1  0
 20 60  1  0
 26 61  1  0
 27 62  1  0
 32 63  1  0
 35 64  1  0
 36 65  1  0
 37 66  1  0
M  END
>  <meeko>  (4) 
{"is_sidechain": false}

>  <vina_affinity_kcal_mol>  (4) 
-9.968

>  <pose_rank>  (4) 
4

$$$$

     RDKit          3D

 66 70  0  0  0  0  0  0  0  0999 V2000
  -13.7170    4.7210  -13.7880 C   0  0  0  0  0  0  0  0  0  0  0  0
  -12.3960    4.2070  -14.2930 C   0  0  0  0  0  0  0  0  0  0  0  0
  -11.7440    4.8840  -15.3350 C   0  0  0  0  0  0  0  0  0  0  0  0
  -10.5160    4.4300  -15.8200 C   0  0  0  0  0  0  0  0  0  0  0  0
   -9.9250    3.2860  -15.2760 C   0  0  0  0  0  0  0  0  0  0  0  0
   -8.6160    2.8310  -15.8250 C   0  0  0  0  0  0  0  0  0  0  0  0
   -8.2210    3.3320  -16.8700 O   0  0  0  0  0  0  0  0  0  0  0  0
   -7.9920    1.8350  -15.0940 N   0  0  0  0  0  0  0  0  0  0  0  0
   -6.7390    1.2420  -15.3500 C   0  0  0  0  0  0  0  0  0  0  0  0
   -5.6770    2.0990  -15.6430 C   0  0  0  0  0  0  0  0  0  0  0  0
   -4.4060    1.5900  -15.9200 C   0  0  0  0  0  0  0  0  0  0  0  0
   -4.1640    0.2070  -15.9110 C   0  0  0  0  0  0  0  0  0  0  0  0
   -2.7670   -0.2900  -16.2400 C   0  0  0  0  0  0  0  0  0  0  0  0
   -2.3320    0.1150  -17.5770 N   0  0  0  0  0  0  0  0  0  0  0  0
   -3.2510   -0.3660  -18.6170 C   0  0  0  0  0  0  0  0  0  0  0  0
   -2.8790    0.1580  -20.0300 C   0  0  0  0  0  0  0  0  0  0  0  0
   -1.4380    0.3420  -20.3090 N   0  0  0  0  0  0  0  0  0  0  0  0
   -1.0610    1.7520  -20.1850 C   0  0  0  0  0  0  0  0  0  0  0  0
   -0.6410   -0.4910  -19.3910 C   0  0  0  0  0  0  0  0  0  0  0  0
   -0.9480   -0.3070  -17.8800 C   0  0  0  0  0  0  0  0  0  0  0  0
   -5.2270   -0.6730  -15.6060 C   0  0  0  0  0  0  0  0  0  0  0  0
   -5.0670   -2.1820  -15.5900 C   0  0  0  0  0  0  0  0  0  0  0  0
   -6.2550   -2.8320  -15.4060 F   0  0  0  0  0  0  0  0  0  0  0  0
   -4.2680   -2.6470  -14.5870 F   0  0  0  0  0  0  0  0  0  0  0  0
   -4.5650   -2.6810  -16.7520 F   0  0  0  0  0  0  0  0  0  0  0  0
   -6.5070   -0.1340  -15.3410 C   0  0  0  0  0  0  0  0  0  0  0  0
  -10.5540    2.6160  -14.2200 C   0  0  0  0  0  0  0  0  0  0  0  0
  -11.7870    3.0700  -13.7340 C   0  0  0  0  0  0  0  0  0  0  0  0
  -12.3950    2.3470  -12.6560 C   0  0  0  0  0  0  0  0  0  0  0  0
  -12.8890    1.7290  -11.7530 C   0  0  0  0  0  0  0  0  0  0  0  0
  -13.4640    0.9940  -10.6830 C   0  0  0  0  0  0  0  0  0  0  0  0
  -14.7110    1.1380  -10.1170 C   0  0  0  0  0  0  0  0  0  0  0  0
  -14.9030    0.2390   -9.0960 N   0  0  0  0  0  0  0  0  0  0  0  0
  -13.7820   -0.4480   -9.0320 C   0  0  0  0  0  0  0  0  0  0  0  0
  -13.3900   -1.5010   -8.1760 C   0  0  0  0  0  0  0  0  0  0  0  0
  -12.1740   -2.0430   -8.3170 C   0  0  0  0  0  0  0  0  0  0  0  0
  -11.3050   -1.4910   -9.3850 C   0  0  0  0  0  0  0  0  0  0  0  0
  -11.6060   -0.5310  -10.2010 N   0  0  0  0  0  0  0  0  0  0  0  0
  -12.8650   -0.0280   -9.9880 N   0  0  0  0  0  0  0  0  0  0  0  0
  -13.7145    4.7200  -12.6880 H   0  0  0  0  0  0  0  0  0  0  0  0
  -13.8754    5.7464  -14.1534 H   0  0  0  0  0  0  0  0  0  0  0  0
  -14.5268    4.0723  -14.1534 H   0  0  0  0  0  0  0  0  0  0  0  0
  -12.2049    5.7811  -15.7740 H   0  0  0  0  0  0  0  0  0  0  0  0
  -10.0122    4.9741  -16.6325 H   0  0  0  0  0  0  0  0  0  0  0  0
   -8.5160    1.4360  -14.3250 H   0  0  0  0  0  0  0  0  0  0  0  0
   -5.8426    3.1864  -15.6559 H   0  0  0  0  0  0  0  0  0  0  0  0
   -3.5827    2.2828  -16.1485 H   0  0  0  0  0  0  0  0  0  0  0  0
   -2.0631    0.1191  -15.5003 H   0  0  0  0  0  0  0  0  0  0  0  0
   -2.7867   -1.3895  -16.2121 H   0  0  0  0  0  0  0  0  0  0  0  0
   -3.2237   -1.4656  -18.6304 H   0  0  0  0  0  0  0  0  0  0  0  0
   -4.2555    0.0115  -18.3751 H   0  0  0  0  0  0  0  0  0  0  0  0
   -3.2728   -0.5582  -20.7661 H   0  0  0  0  0  0  0  0  0  0  0  0
   -3.3176    1.1649  -20.0911 H   0  0  0  0  0  0  0  0  0  0  0  0
   -0.9893    2.0201  -19.1206 H   0  0  0  0  0  0  0  0  0  0  0  0
   -0.0876    1.9154  -20.6706 H   0  0  0  0  0  0  0  0  0  0  0  0
   -1.8230    2.3794  -20.6706 H   0  0  0  0  0  0  0  0  0  0  0  0
   -0.8222   -1.5453  -19.6472 H   0  0  0  0  0  0  0  0  0  0  0  0
    0.4034   -0.1734  -19.5266 H   0  0  0  0  0  0  0  0  0  0  0  0
   -0.7638   -1.2661  -17.3738 H   0  0  0  0  0  0  0  0  0  0  0  0
   -0.2923    0.5024  -17.5264 H   0  0  0  0  0  0  0  0  0  0  0  0
   -7.3412   -0.8168  -15.1222 H   0  0  0  0  0  0  0  0  0  0  0  0
  -10.0791    1.7312  -13.7709 H   0  0  0  0  0  0  0  0  0  0  0  0
  -15.4577    1.8780  -10.4408 H   0  0  0  0  0  0  0  0  0  0  0  0
  -14.0771   -1.8720   -7.4012 H   0  0  0  0  0  0  0  0  0  0  0  0
  -11.8335   -2.8633   -7.6681 H   0  0  0  0  0  0  0  0  0  0  0  0
  -10.3073   -1.9409   -9.4948 H   0  0  0  0  0  0  0  0  0  0  0  0
  1  2  1  0
  2  3  1  0
  3  4  2  0
  4  5  1  0
  5  6  1  0
  6  7  2  0
  6  8  1  0
  8  9  1  0
  9 10  1  0
 10 11  2  0
 11 12  1  0
 12 13  1  0
 13 14  1  0
 14 15  1  0
 15 16  1  0
 16 17  1  0
 17 18  1  0
 17 19  1  0
 19 20  1  0
 12 21  2  0
 21 22  1  0
 22 23  1  0
 22 24  1  0
 22 25  1  0
 21 26  1  0
  5 27  2  0
 27 28  1  0
 28 29  1  0
 29 30  3  0
 30 31  1  0
 31 32  2  0
 32 33  1  0
 33 34  2  0
 34 35  1  0
 35 36  2  0
 36 37  1  0
 37 38  2  0
 38 39  1  0
 28  2  2  0
 39 31  1  0
 26  9  2  0
 39 34  1  0
 20 14  1  0
  1 40  1  0
  1 41  1  0
  1 42  1  0
  3 43  1  0
  4 44  1  0
  8 45  1  0
 10 46  1  0
 11 47  1  0
 13 48  1  0
 13 49  1  0
 15 50  1  0
 15 51  1  0
 16 52  1  0
 16 53  1  0
 18 54  1  0
 18 55  1  0
 18 56  1  0
 19 57  1  0
 19 58  1  0
 20 59  1  0
 20 60  1  0
 26 61  1  0
 27 62  1  0
 32 63  1  0
 35 64  1  0
 36 65  1  0
 37 66  1  0
M  END
>  <meeko>  (5) 
{"is_sidechain": false}

>  <vina_affinity_kcal_mol>  (5) 
-9.804

>  <pose_rank>  (5) 
5

$$$$

     RDKit          3D

 66 70  0  0  0  0  0  0  0  0999 V2000
   -9.6320    6.1210  -17.1630 C   0  0  0  0  0  0  0  0  0  0  0  0
   -8.6170    5.0210  -17.0180 C   0  0  0  0  0  0  0  0  0  0  0  0
   -7.4080    5.0990  -17.7260 C   0  0  0  0  0  0  0  0  0  0  0  0
   -6.4470    4.0930  -17.6070 C   0  0  0  0  0  0  0  0  0  0  0  0
   -6.6840    2.9870  -16.7850 C   0  0  0  0  0  0  0  0  0  0  0  0
   -5.6360    1.9330  -16.6880 C   0  0  0  0  0  0  0  0  0  0  0  0
   -4.5070    2.2010  -17.0790 O   0  0  0  0  0  0  0  0  0  0  0  0
   -6.0750    0.7190  -16.1920 N   0  0  0  0  0  0  0  0  0  0  0  0
   -5.3050   -0.4400  -15.9560 C   0  0  0  0  0  0  0  0  0  0  0  0
   -4.9480   -1.2030  -17.0690 C   0  0  0  0  0  0  0  0  0  0  0  0
   -4.1970   -2.3710  -16.9210 C   0  0  0  0  0  0  0  0  0  0  0  0
   -3.7820   -2.8070  -15.6520 C   0  0  0  0  0  0  0  0  0  0  0  0
   -2.9850   -4.0950  -15.5500 C   0  0  0  0  0  0  0  0  0  0  0  0
   -3.7100   -5.2440  -16.0920 N   0  0  0  0  0  0  0  0  0  0  0  0
   -4.9350   -5.5240  -15.3310 C   0  0  0  0  0  0  0  0  0  0  0  0
   -5.7850   -6.6580  -15.9640 C   0  0  0  0  0  0  0  0  0  0  0  0
   -5.0410   -7.7420  -16.6400 N   0  0  0  0  0  0  0  0  0  0  0  0
   -5.0470   -7.5490  -18.0920 C   0  0  0  0  0  0  0  0  0  0  0  0
   -3.6600   -7.7960  -16.1290 C   0  0  0  0  0  0  0  0  0  0  0  0
   -2.8730   -6.4590  -16.1810 C   0  0  0  0  0  0  0  0  0  0  0  0
   -4.1280   -2.0380  -14.5170 C   0  0  0  0  0  0  0  0  0  0  0  0
   -3.7420   -2.4390  -13.1050 C   0  0  0  0  0  0  0  0  0  0  0  0
   -4.0410   -1.4710  -12.1870 F   0  0  0  0  0  0  0  0  0  0  0  0
   -2.4080   -2.6650  -12.9350 F   0  0  0  0  0  0  0  0  0  0  0  0
   -4.3860   -3.5550  -12.6680 F   0  0  0  0  0  0  0  0  0  0  0  0
   -4.8990   -0.8670  -14.6920 C   0  0  0  0  0  0  0  0  0  0  0  0
   -7.8760    2.9100  -16.0550 C   0  0  0  0  0  0  0  0  0  0  0  0
   -8.8420    3.9180  -16.1750 C   0  0  0  0  0  0  0  0  0  0  0  0
  -10.0490    3.7910  -15.4130 C   0  0  0  0  0  0  0  0  0  0  0  0
  -11.0530    3.6690  -14.7670 C   0  0  0  0  0  0  0  0  0  0  0  0
  -12.2360    3.5170  -13.9960 C   0  0  0  0  0  0  0  0  0  0  0  0
  -13.4370    4.1780  -14.1290 C   0  0  0  0  0  0  0  0  0  0  0  0
  -14.3450    3.7570  -13.1890 N   0  0  0  0  0  0  0  0  0  0  0  0
  -13.7080    2.8490  -12.4810 C   0  0  0  0  0  0  0  0  0  0  0  0
  -14.1280    2.0720  -11.3780 C   0  0  0  0  0  0  0  0  0  0  0  0
  -13.2740    1.2010  -10.8260 C   0  0  0  0  0  0  0  0  0  0  0  0
  -11.9200    1.1060  -11.4250 C   0  0  0  0  0  0  0  0  0  0  0  0
  -11.4770    1.7870  -12.4340 N   0  0  0  0  0  0  0  0  0  0  0  0
  -12.4090    2.6590  -12.9370 N   0  0  0  0  0  0  0  0  0  0  0  0
   -9.9473    6.4627  -16.1661 H   0  0  0  0  0  0  0  0  0  0  0  0
   -9.1855    6.9615  -17.7145 H   0  0  0  0  0  0  0  0  0  0  0  0
  -10.5057    5.7434  -17.7145 H   0  0  0  0  0  0  0  0  0  0  0  0
   -7.2154    5.9613  -18.3813 H   0  0  0  0  0  0  0  0  0  0  0  0
   -5.5003    4.1708  -18.1618 H   0  0  0  0  0  0  0  0  0  0  0  0
   -7.0710    0.6200  -16.0380 H   0  0  0  0  0  0  0  0  0  0  0  0
   -5.2615   -0.8809  -18.0730 H   0  0  0  0  0  0  0  0  0  0  0  0
   -3.9266   -2.9580  -17.8111 H   0  0  0  0  0  0  0  0  0  0  0  0
   -2.0455   -3.9743  -16.1093 H   0  0  0  0  0  0  0  0  0  0  0  0
   -2.7973   -4.2896  -14.4837 H   0  0  0  0  0  0  0  0  0  0  0  0
   -4.6550   -5.8218  -14.3098 H   0  0  0  0  0  0  0  0  0  0  0  0
   -5.5454   -4.6089  -15.3339 H   0  0  0  0  0  0  0  0  0  0  0  0
   -6.3842   -7.1138  -15.1620 H   0  0  0  0  0  0  0  0  0  0  0  0
   -6.3745   -6.1723  -16.7556 H   0  0  0  0  0  0  0  0  0  0  0  0
   -5.0804   -6.4731  -18.3187 H   0  0  0  0  0  0  0  0  0  0  0  0
   -4.1348   -7.9866  -18.5238 H   0  0  0  0  0  0  0  0  0  0  0  0
   -5.9302   -8.0424  -18.5238 H   0  0  0  0  0  0  0  0  0  0  0  0
   -3.6999   -8.1247  -15.0800 H   0  0  0  0  0  0  0  0  0  0  0  0
   -3.1207   -8.4887  -16.7918 H   0  0  0  0  0  0  0  0  0  0  0  0
   -2.1622   -6.4473  -15.3416 H   0  0  0  0  0  0  0  0  0  0  0  0
   -2.3825   -6.4261  -17.1650 H   0  0  0  0  0  0  0  0  0  0  0  0
   -5.1863   -0.2773  -13.8090 H   0  0  0  0  0  0  0  0  0  0  0  0
   -8.0548    2.0559  -15.3853 H   0  0  0  0  0  0  0  0  0  0  0  0
  -13.6424    4.9447  -14.8905 H   0  0  0  0  0  0  0  0  0  0  0  0
  -15.1464    2.1816  -10.9769 H   0  0  0  0  0  0  0  0  0  0  0  0
  -13.5641    0.5817   -9.9644 H   0  0  0  0  0  0  0  0  0  0  0  0
  -11.2243    0.3871  -10.9676 H   0  0  0  0  0  0  0  0  0  0  0  0
  1  2  1  0
  2  3  1  0
  3  4  2  0
  4  5  1  0
  5  6  1  0
  6  7  2  0
  6  8  1  0
  8  9  1  0
  9 10  1  0
 10 11  2  0
 11 12  1  0
 12 13  1  0
 13 14  1  0
 14 15  1  0
 15 16  1  0
 16 17  1  0
 17 18  1  0
 17 19  1  0
 19 20  1  0
 12 21  2  0
 21 22  1  0
 22 23  1  0
 22 24  1  0
 22 25  1  0
 21 26  1  0
  5 27  2  0
 27 28  1  0
 28 29  1  0
 29 30  3  0
 30 31  1  0
 31 32  2  0
 32 33  1  0
 33 34  2  0
 34 35  1  0
 35 36  2  0
 36 37  1  0
 37 38  2  0
 38 39  1  0
 28  2  2  0
 39 31  1  0
 26  9  2  0
 39 34  1  0
 20 14  1  0
  1 40  1  0
  1 41  1  0
  1 42  1  0
  3 43  1  0
  4 44  1  0
  8 45  1  0
 10 46  1  0
 11 47  1  0
 13 48  1  0
 13 49  1  0
 15 50  1  0
 15 51  1  0
 16 52  1  0
 16 53  1  0
 18 54  1  0
 18 55  1  0
 18 56  1  0
 19 57  1  0
 19 58  1  0
 20 59  1  0
 20 60  1  0
 26 61  1  0
 27 62  1  0
 32 63  1  0
 35 64  1  0
 36 65  1  0
 37 66  1  0
M  END
>  <meeko>  (6) 
{"is_sidechain": false}

>  <vina_affinity_kcal_mol>  (6) 
-9.794

>  <pose_rank>  (6) 
6

$$$$

     RDKit          3D

 66 70  0  0  0  0  0  0  0  0999 V2000
   -9.9760    5.1940  -16.5940 C   0  0  0  0  0  0  0  0  0  0  0  0
  -10.6300    4.4010  -15.4950 C   0  0  0  0  0  0  0  0  0  0  0  0
  -11.8640    4.8250  -14.9790 C   0  0  0  0  0  0  0  0  0  0  0  0
  -12.4950    4.1050  -13.9620 C   0  0  0  0  0  0  0  0  0  0  0  0
  -11.8960    2.9550  -13.4380 C   0  0  0  0  0  0  0  0  0  0  0  0
  -12.5990    2.2190  -12.3510 C   0  0  0  0  0  0  0  0  0  0  0  0
  -13.7500    2.5400  -12.0830 O   0  0  0  0  0  0  0  0  0  0  0  0
  -11.8390    1.2530  -11.7150 N   0  0  0  0  0  0  0  0  0  0  0  0
  -12.2470    0.3820  -10.6830 C   0  0  0  0  0  0  0  0  0  0  0  0
  -11.5290   -0.8050  -10.5320 C   0  0  0  0  0  0  0  0  0  0  0  0
  -11.8760   -1.7270   -9.5420 C   0  0  0  0  0  0  0  0  0  0  0  0
  -12.9540   -1.4840   -8.6750 C   0  0  0  0  0  0  0  0  0  0  0  0
  -13.2980   -2.5310   -7.6310 C   0  0  0  0  0  0  0  0  0  0  0  0
  -12.7270   -3.8400   -7.9450 N   0  0  0  0  0  0  0  0  0  0  0  0
  -13.6820   -4.6930   -8.6660 C   0  0  0  0  0  0  0  0  0  0  0  0
  -13.0560   -6.0380   -9.1210 C   0  0  0  0  0  0  0  0  0  0  0  0
  -12.0290   -6.6230   -8.2310 N   0  0  0  0  0  0  0  0  0  0  0  0
  -10.6840   -6.3490   -8.7410 C   0  0  0  0  0  0  0  0  0  0  0  0
  -12.1870   -6.0910   -6.8670 C   0  0  0  0  0  0  0  0  0  0  0  0
  -12.2140   -4.5420   -6.7490 C   0  0  0  0  0  0  0  0  0  0  0  0
  -13.6840   -0.2810   -8.8100 C   0  0  0  0  0  0  0  0  0  0  0  0
  -14.8750    0.0610   -7.9340 C   0  0  0  0  0  0  0  0  0  0  0  0
  -15.4710    1.2370   -8.2960 F   0  0  0  0  0  0  0  0  0  0  0  0
  -14.5670    0.2280   -6.6160 F   0  0  0  0  0  0  0  0  0  0  0  0
  -15.8660   -0.8710   -7.9870 F   0  0  0  0  0  0  0  0  0  0  0  0
  -13.3210    0.6300   -9.8270 C   0  0  0  0  0  0  0  0  0  0  0  0
  -10.6770    2.5090  -13.9620 C   0  0  0  0  0  0  0  0  0  0  0  0
  -10.0430    3.2320  -14.9820 C   0  0  0  0  0  0  0  0  0  0  0  0
   -8.7940    2.7380  -15.4810 C   0  0  0  0  0  0  0  0  0  0  0  0
   -7.7480    2.3110  -15.8870 C   0  0  0  0  0  0  0  0  0  0  0  0
   -6.5150    1.7940  -16.3660 C   0  0  0  0  0  0  0  0  0  0  0  0
   -5.4620    2.4770  -16.9330 C   0  0  0  0  0  0  0  0  0  0  0  0
   -4.4400    1.6260  -17.2750 N   0  0  0  0  0  0  0  0  0  0  0  0
   -4.8620    0.4290  -16.9240 C   0  0  0  0  0  0  0  0  0  0  0  0
   -4.2460   -0.8380  -17.0320 C   0  0  0  0  0  0  0  0  0  0  0  0
   -4.8960   -1.9220  -16.5920 C   0  0  0  0  0  0  0  0  0  0  0  0
   -6.2430   -1.7150  -16.0070 C   0  0  0  0  0  0  0  0  0  0  0  0
   -6.8590   -0.5830  -15.8780 N   0  0  0  0  0  0  0  0  0  0  0  0
   -6.1290    0.4760  -16.3560 N   0  0  0  0  0  0  0  0  0  0  0  0
   -9.3347    5.9716  -16.1534 H   0  0  0  0  0  0  0  0  0  0  0  0
   -9.3647    4.5236  -17.2160 H   0  0  0  0  0  0  0  0  0  0  0  0
  -10.7505    5.6665  -17.2160 H   0  0  0  0  0  0  0  0  0  0  0  0
  -12.3389    5.7329  -15.3792 H   0  0  0  0  0  0  0  0  0  0  0  0
  -13.4662    4.4436  -13.5720 H   0  0  0  0  0  0  0  0  0  0  0  0
  -10.8590    1.2030  -11.9670 H   0  0  0  0  0  0  0  0  0  0  0  0
  -10.6808   -1.0167  -11.1997 H   0  0  0  0  0  0  0  0  0  0  0  0
  -11.2969   -2.6566   -9.4398 H   0  0  0  0  0  0  0  0  0  0  0  0
  -12.9083   -2.2000   -6.6570 H   0  0  0  0  0  0  0  0  0  0  0  0
  -14.3926   -2.6385   -7.6118 H   0  0  0  0  0  0  0  0  0  0  0  0
  -14.5333   -4.9071   -8.0030 H   0  0  0  0  0  0  0  0  0  0  0  0
  -13.9974   -4.1501   -9.5692 H   0  0  0  0  0  0  0  0  0  0  0  0
  -13.8711   -6.7703   -9.2172 H   0  0  0  0  0  0  0  0  0  0  0  0
  -12.5316   -5.8116  -10.0611 H   0  0  0  0  0  0  0  0  0  0  0  0
   -9.9933   -6.2083   -7.8965 H   0  0  0  0  0  0  0  0  0  0  0  0
  -10.3449   -7.1965   -9.3548 H   0  0  0  0  0  0  0  0  0  0  0  0
  -10.7035   -5.4364   -9.3548 H   0  0  0  0  0  0  0  0  0  0  0  0
  -13.1331   -6.4778   -6.4605 H   0  0  0  0  0  0  0  0  0  0  0  0
  -11.2964   -6.4194   -6.3111 H   0  0  0  0  0  0  0  0  0  0  0  0
  -12.8529   -4.2746   -5.8944 H   0  0  0  0  0  0  0  0  0  0  0  0
  -11.1690   -4.2216   -6.6251 H   0  0  0  0  0  0  0  0  0  0  0  0
  -13.8993    1.5580   -9.9471 H   0  0  0  0  0  0  0  0  0  0  0  0
  -10.2157    1.5894  -13.5726 H   0  0  0  0  0  0  0  0  0  0  0  0
   -5.4422    3.5653  -17.0917 H   0  0  0  0  0  0  0  0  0  0  0  0
   -3.2427   -0.9324  -17.4731 H   0  0  0  0  0  0  0  0  0  0  0  0
   -4.4496   -2.9250  -16.6614 H   0  0  0  0  0  0  0  0  0  0  0  0
   -6.7707   -2.6107  -15.6474 H   0  0  0  0  0  0  0  0  0  0  0  0
  1  2  1  0
  2  3  1  0
  3  4  2  0
  4  5  1  0
  5  6  1  0
  6  7  2  0
  6  8  1  0
  8  9  1  0
  9 10  1  0
 10 11  2  0
 11 12  1  0
 12 13  1  0
 13 14  1  0
 14 15  1  0
 15 16  1  0
 16 17  1  0
 17 18  1  0
 17 19  1  0
 19 20  1  0
 12 21  2  0
 21 22  1  0
 22 23  1  0
 22 24  1  0
 22 25  1  0
 21 26  1  0
  5 27  2  0
 27 28  1  0
 28 29  1  0
 29 30  3  0
 30 31  1  0
 31 32  2  0
 32 33  1  0
 33 34  2  0
 34 35  1  0
 35 36  2  0
 36 37  1  0
 37 38  2  0
 38 39  1  0
 28  2  2  0
 39 31  1  0
 26  9  2  0
 39 34  1  0
 20 14  1  0
  1 40  1  0
  1 41  1  0
  1 42  1  0
  3 43  1  0
  4 44  1  0
  8 45  1  0
 10 46  1  0
 11 47  1  0
 13 48  1  0
 13 49  1  0
 15 50  1  0
 15 51  1  0
 16 52  1  0
 16 53  1  0
 18 54  1  0
 18 55  1  0
 18 56  1  0
 19 57  1  0
 19 58  1  0
 20 59  1  0
 20 60  1  0
 26 61  1  0
 27 62  1  0
 32 63  1  0
 35 64  1  0
 36 65  1  0
 37 66  1  0
M  END
>  <meeko>  (7) 
{"is_sidechain": false}

>  <vina_affinity_kcal_mol>  (7) 
-9.679

>  <pose_rank>  (7) 
7

$$$$

     RDKit          3D

 66 70  0  0  0  0  0  0  0  0999 V2000
   -7.9210    2.0760  -17.2300 C   0  0  0  0  0  0  0  0  0  0  0  0
   -8.8250    1.8710  -16.0460 C   0  0  0  0  0  0  0  0  0  0  0  0
   -8.8720    0.6140  -15.4230 C   0  0  0  0  0  0  0  0  0  0  0  0
   -9.7000    0.3970  -14.3190 C   0  0  0  0  0  0  0  0  0  0  0  0
  -10.5010    1.4310  -13.8260 C   0  0  0  0  0  0  0  0  0  0  0  0
  -11.3740    1.1580  -12.6510 C   0  0  0  0  0  0  0  0  0  0  0  0
  -12.3520    1.8740  -12.4750 O   0  0  0  0  0  0  0  0  0  0  0  0
  -10.9500    0.1210  -11.8390 N   0  0  0  0  0  0  0  0  0  0  0  0
  -11.5900   -0.3830  -10.6870 C   0  0  0  0  0  0  0  0  0  0  0  0
  -11.5110    0.3890   -9.5270 C   0  0  0  0  0  0  0  0  0  0  0  0
  -12.1070   -0.0440   -8.3400 C   0  0  0  0  0  0  0  0  0  0  0  0
  -12.8000   -1.2650   -8.2840 C   0  0  0  0  0  0  0  0  0  0  0  0
  -13.4100   -1.6940   -6.9620 C   0  0  0  0  0  0  0  0  0  0  0  0
  -14.8500   -1.4420   -6.9050 N   0  0  0  0  0  0  0  0  0  0  0  0
  -15.1680   -0.0320   -7.1680 C   0  0  0  0  0  0  0  0  0  0  0  0
  -16.6960    0.2330   -7.2380 C   0  0  0  0  0  0  0  0  0  0  0  0
  -17.5500   -0.5920   -6.3560 N   0  0  0  0  0  0  0  0  0  0  0  0
  -18.1670   -1.6870   -7.1080 C   0  0  0  0  0  0  0  0  0  0  0  0
  -16.7530   -1.1160   -5.2340 C   0  0  0  0  0  0  0  0  0  0  0  0
  -15.4570   -1.8750   -5.6280 C   0  0  0  0  0  0  0  0  0  0  0  0
  -12.8970   -2.0520   -9.4540 C   0  0  0  0  0  0  0  0  0  0  0  0
  -13.6080   -3.3920   -9.4860 C   0  0  0  0  0  0  0  0  0  0  0  0
  -13.4200   -4.0560  -10.6660 F   0  0  0  0  0  0  0  0  0  0  0  0
  -14.9630   -3.3070   -9.3570 F   0  0  0  0  0  0  0  0  0  0  0  0
  -13.1780   -4.2520   -8.5230 F   0  0  0  0  0  0  0  0  0  0  0  0
  -12.2750   -1.5980  -10.6390 C   0  0  0  0  0  0  0  0  0  0  0  0
  -10.4450    2.6960  -14.4240 C   0  0  0  0  0  0  0  0  0  0  0  0
   -9.6160    2.9140  -15.5330 C   0  0  0  0  0  0  0  0  0  0  0  0
   -9.5970    4.2240  -16.1140 C   0  0  0  0  0  0  0  0  0  0  0  0
   -9.5940    5.3270  -16.5880 C   0  0  0  0  0  0  0  0  0  0  0  0
   -9.5920    6.6270  -17.1590 C   0  0  0  0  0  0  0  0  0  0  0  0
   -9.5920    7.8450  -16.5170 C   0  0  0  0  0  0  0  0  0  0  0  0
   -9.5940    8.8840  -17.4160 N   0  0  0  0  0  0  0  0  0  0  0  0
   -9.5990    8.3090  -18.6000 C   0  0  0  0  0  0  0  0  0  0  0  0
   -9.6070    8.8650  -19.8990 C   0  0  0  0  0  0  0  0  0  0  0  0
   -9.6090    8.0510  -20.9620 C   0  0  0  0  0  0  0  0  0  0  0  0
   -9.6000    6.5920  -20.6980 C   0  0  0  0  0  0  0  0  0  0  0  0
   -9.5910    6.0210  -19.5350 N   0  0  0  0  0  0  0  0  0  0  0  0
   -9.5940    6.9230  -18.5010 N   0  0  0  0  0  0  0  0  0  0  0  0
   -6.9042    2.3066  -16.8794 H   0  0  0  0  0  0  0  0  0  0  0  0
   -7.9001    1.1598  -17.8384 H   0  0  0  0  0  0  0  0  0  0  0  0
   -8.2974    2.9116  -17.8384 H   0  0  0  0  0  0  0  0  0  0  0  0
   -8.2508   -0.2082  -15.8079 H   0  0  0  0  0  0  0  0  0  0  0  0
   -9.7217   -0.5910  -13.8360 H   0  0  0  0  0  0  0  0  0  0  0  0
  -10.0470   -0.2860  -12.0500 H   0  0  0  0  0  0  0  0  0  0  0  0
  -10.9737    1.3486   -9.5476 H   0  0  0  0  0  0  0  0  0  0  0  0
  -12.0327    0.5795   -7.4368 H   0  0  0  0  0  0  0  0  0  0  0  0
  -13.2340   -2.7711   -6.8246 H   0  0  0  0  0  0  0  0  0  0  0  0
  -12.9341   -1.1033   -6.1654 H   0  0  0  0  0  0  0  0  0  0  0  0
  -14.7407    0.5818   -6.3614 H   0  0  0  0  0  0  0  0  0  0  0  0
  -14.7397    0.2288   -8.1470 H   0  0  0  0  0  0  0  0  0  0  0  0
  -16.8646    1.2877   -6.9752 H   0  0  0  0  0  0  0  0  0  0  0  0
  -16.9913   -0.0353   -8.2631 H   0  0  0  0  0  0  0  0  0  0  0  0
  -18.5829   -2.4250   -6.4063 H   0  0  0  0  0  0  0  0  0  0  0  0
  -18.9732   -1.2883   -7.7412 H   0  0  0  0  0  0  0  0  0  0  0  0
  -17.4083   -2.1701   -7.7412 H   0  0  0  0  0  0  0  0  0  0  0  0
  -16.4670   -0.2665   -4.5963 H   0  0  0  0  0  0  0  0  0  0  0  0
  -17.3929   -1.8552   -4.7299 H   0  0  0  0  0  0  0  0  0  0  0  0
  -14.7162   -1.7255   -4.8287 H   0  0  0  0  0  0  0  0  0  0  0  0
  -15.7432   -2.9286   -5.7621 H   0  0  0  0  0  0  0  0  0  0  0  0
  -12.3322   -2.2177  -11.5461 H   0  0  0  0  0  0  0  0  0  0  0  0
  -11.0528    3.5203  -14.0226 H   0  0  0  0  0  0  0  0  0  0  0  0
   -9.5906    7.9702  -15.4242 H   0  0  0  0  0  0  0  0  0  0  0  0
   -9.6115    9.9565  -20.0356 H   0  0  0  0  0  0  0  0  0  0  0  0
   -9.6170    8.4479  -21.9879 H   0  0  0  0  0  0  0  0  0  0  0  0
   -9.6011    5.9292  -21.5759 H   0  0  0  0  0  0  0  0  0  0  0  0
  1  2  1  0
  2  3  1  0
  3  4  2  0
  4  5  1  0
  5  6  1  0
  6  7  2  0
  6  8  1  0
  8  9  1  0
  9 10  1  0
 10 11  2  0
 11 12  1  0
 12 13  1  0
 13 14  1  0
 14 15  1  0
 15 16  1  0
 16 17  1  0
 17 18  1  0
 17 19  1  0
 19 20  1  0
 12 21  2  0
 21 22  1  0
 22 23  1  0
 22 24  1  0
 22 25  1  0
 21 26  1  0
  5 27  2  0
 27 28  1  0
 28 29  1  0
 29 30  3  0
 30 31  1  0
 31 32  2  0
 32 33  1  0
 33 34  2  0
 34 35  1  0
 35 36  2  0
 36 37  1  0
 37 38  2  0
 38 39  1  0
 28  2  2  0
 39 31  1  0
 26  9  2  0
 39 34  1  0
 20 14  1  0
  1 40  1  0
  1 41  1  0
  1 42  1  0
  3 43  1  0
  4 44  1  0
  8 45  1  0
 10 46  1  0
 11 47  1  0
 13 48  1  0
 13 49  1  0
 15 50  1  0
 15 51  1  0
 16 52  1  0
 16 53  1  0
 18 54  1  0
 18 55  1  0
 18 56  1  0
 19 57  1  0
 19 58  1  0
 20 59  1  0
 20 60  1  0
 26 61  1  0
 27 62  1  0
 32 63  1  0
 35 64  1  0
 36 65  1  0
 37 66  1  0
M  END
>  <meeko>  (8) 
{"is_sidechain": false}

>  <vina_affinity_kcal_mol>  (8) 
-9.629

>  <pose_rank>  (8) 
8

$$$$

     RDKit          3D

 66 70  0  0  0  0  0  0  0  0999 V2000
  -10.0680    4.7470  -16.4680 C   0  0  0  0  0  0  0  0  0  0  0  0
  -10.6560    3.9910  -15.3080 C   0  0  0  0  0  0  0  0  0  0  0  0
  -11.7920    4.4990  -14.6580 C   0  0  0  0  0  0  0  0  0  0  0  0
  -12.3600    3.8160  -13.5810 C   0  0  0  0  0  0  0  0  0  0  0  0
  -11.7970    2.6170  -13.1310 C   0  0  0  0  0  0  0  0  0  0  0  0
  -12.4310    1.9220  -11.9770 C   0  0  0  0  0  0  0  0  0  0  0  0
  -13.6100    2.1510  -11.7380 O   0  0  0  0  0  0  0  0  0  0  0  0
  -11.5830    1.1000  -11.2550 N   0  0  0  0  0  0  0  0  0  0  0  0
  -11.9100    0.2950  -10.1430 C   0  0  0  0  0  0  0  0  0  0  0  0
  -12.5290   -0.9290  -10.4050 C   0  0  0  0  0  0  0  0  0  0  0  0
  -12.8960   -1.7800   -9.3600 C   0  0  0  0  0  0  0  0  0  0  0  0
  -12.6520   -1.4270   -8.0220 C   0  0  0  0  0  0  0  0  0  0  0  0
  -13.0910   -2.3820   -6.9270 C   0  0  0  0  0  0  0  0  0  0  0  0
  -14.5310   -2.3200   -6.6760 N   0  0  0  0  0  0  0  0  0  0  0  0
  -14.8260   -2.0600   -5.2600 C   0  0  0  0  0  0  0  0  0  0  0  0
  -16.3420   -1.8630   -4.9930 C   0  0  0  0  0  0  0  0  0  0  0  0
  -17.2690   -2.6490   -5.8360 N   0  0  0  0  0  0  0  0  0  0  0  0
  -17.8170   -1.8230   -6.9140 C   0  0  0  0  0  0  0  0  0  0  0  0
  -16.5720   -3.8250   -6.3840 C   0  0  0  0  0  0  0  0  0  0  0  0
  -15.2460   -3.5290   -7.1360 C   0  0  0  0  0  0  0  0  0  0  0  0
  -12.0170   -0.1960   -7.7430 C   0  0  0  0  0  0  0  0  0  0  0  0
  -11.7290    0.2790   -6.3310 C   0  0  0  0  0  0  0  0  0  0  0  0
  -11.1130    1.4990   -6.3040 F   0  0  0  0  0  0  0  0  0  0  0  0
  -10.8940   -0.5380   -5.6280 F   0  0  0  0  0  0  0  0  0  0  0  0
  -12.8520    0.4310   -5.5760 F   0  0  0  0  0  0  0  0  0  0  0  0
  -11.6660    0.6530   -8.8170 C   0  0  0  0  0  0  0  0  0  0  0  0
  -10.6800    2.0880  -13.7870 C   0  0  0  0  0  0  0  0  0  0  0  0
  -10.1070    2.7740  -14.8670 C   0  0  0  0  0  0  0  0  0  0  0  0
   -8.9600    2.1960  -15.5020 C   0  0  0  0  0  0  0  0  0  0  0  0
   -8.0000    1.6970  -16.0220 C   0  0  0  0  0  0  0  0  0  0  0  0
   -6.8670    1.0960  -16.6320 C   0  0  0  0  0  0  0  0  0  0  0  0
   -6.0540    1.6070  -17.6200 C   0  0  0  0  0  0  0  0  0  0  0  0
   -5.0580    0.7220  -17.9530 N   0  0  0  0  0  0  0  0  0  0  0  0
   -5.2580   -0.3240  -17.1800 C   0  0  0  0  0  0  0  0  0  0  0  0
   -4.5560   -1.5460  -17.0750 C   0  0  0  0  0  0  0  0  0  0  0  0
   -4.9670   -2.4650  -16.1940 C   0  0  0  0  0  0  0  0  0  0  0  0
   -6.1530   -2.1310  -15.3680 C   0  0  0  0  0  0  0  0  0  0  0  0
   -6.8360   -1.0310  -15.4150 N   0  0  0  0  0  0  0  0  0  0  0  0
   -6.3540   -0.1450  -16.3450 N   0  0  0  0  0  0  0  0  0  0  0  0
   -9.4337    5.5625  -16.0905 H   0  0  0  0  0  0  0  0  0  0  0  0
   -9.4612    4.0642  -17.0809 H   0  0  0  0  0  0  0  0  0  0  0  0
  -10.8791    5.1670  -17.0809 H   0  0  0  0  0  0  0  0  0  0  0  0
  -12.2387    5.4440  -15.0005 H   0  0  0  0  0  0  0  0  0  0  0  0
  -13.2536    4.2221  -13.0844 H   0  0  0  0  0  0  0  0  0  0  0  0
  -10.6020    1.1240  -11.5030 H   0  0  0  0  0  0  0  0  0  0  0  0
  -12.7296   -1.2260  -11.4450 H   0  0  0  0  0  0  0  0  0  0  0  0
  -13.3828   -2.7398   -9.5876 H   0  0  0  0  0  0  0  0  0  0  0  0
  -12.8286   -3.4074   -7.2267 H   0  0  0  0  0  0  0  0  0  0  0  0
  -12.5764   -2.0883   -6.0002 H   0  0  0  0  0  0  0  0  0  0  0  0
  -14.4712   -2.9135   -4.6637 H   0  0  0  0  0  0  0  0  0  0  0  0
  -14.3141   -1.1279   -4.9786 H   0  0  0  0  0  0  0  0  0  0  0  0
  -16.5342   -2.1327   -3.9440 H   0  0  0  0  0  0  0  0  0  0  0  0
  -16.5463   -0.8106   -5.2395 H   0  0  0  0  0  0  0  0  0  0  0  0
  -18.3762   -0.9801   -6.4819 H   0  0  0  0  0  0  0  0  0  0  0  0
  -16.9948   -1.4377   -7.5349 H   0  0  0  0  0  0  0  0  0  0  0  0
  -18.4916   -2.4308   -7.5349 H   0  0  0  0  0  0  0  0  0  0  0  0
  -16.3431   -4.5026   -5.5483 H   0  0  0  0  0  0  0  0  0  0  0  0
  -17.2527   -4.2564   -7.1327 H   0  0  0  0  0  0  0  0  0  0  0  0
  -14.5777   -4.3928   -7.0049 H   0  0  0  0  0  0  0  0  0  0  0  0
  -15.5186   -3.3477   -8.1862 H   0  0  0  0  0  0  0  0  0  0  0  0
  -11.1885    1.6203   -8.6019 H   0  0  0  0  0  0  0  0  0  0  0  0
  -10.2504    1.1315  -13.4545 H   0  0  0  0  0  0  0  0  0  0  0  0
   -6.1857    2.5963  -18.0825 H   0  0  0  0  0  0  0  0  0  0  0  0
   -3.6801   -1.7397  -17.7116 H   0  0  0  0  0  0  0  0  0  0  0  0
   -4.4470   -3.4284  -16.0866 H   0  0  0  0  0  0  0  0  0  0  0  0
   -6.4848   -2.8911  -14.6454 H   0  0  0  0  0  0  0  0  0  0  0  0
  1  2  1  0
  2  3  1  0
  3  4  2  0
  4  5  1  0
  5  6  1  0
  6  7  2  0
  6  8  1  0
  8  9  1  0
  9 10  1  0
 10 11  2  0
 11 12  1  0
 12 13  1  0
 13 14  1  0
 14 15  1  0
 15 16  1  0
 16 17  1  0
 17 18  1  0
 17 19  1  0
 19 20  1  0
 12 21  2  0
 21 22  1  0
 22 23  1  0
 22 24  1  0
 22 25  1  0
 21 26  1  0
  5 27  2  0
 27 28  1  0
 28 29  1  0
 29 30  3  0
 30 31  1  0
 31 32  2  0
 32 33  1  0
 33 34  2  0
 34 35  1  0
 35 36  2  0
 36 37  1  0
 37 38  2  0
 38 39  1  0
 28  2  2  0
 39 31  1  0
 26  9  2  0
 39 34  1  0
 20 14  1  0
  1 40  1  0
  1 41  1  0
  1 42  1  0
  3 43  1  0
  4 44  1  0
  8 45  1  0
 10 46  1  0
 11 47  1  0
 13 48  1  0
 13 49  1  0
 15 50  1  0
 15 51  1  0
 16 52  1  0
 16 53  1  0
 18 54  1  0
 18 55  1  0
 18 56  1  0
 19 57  1  0
 19 58  1  0
 20 59  1  0
 20 60  1  0
 26 61  1  0
 27 62  1  0
 32 63  1  0
 35 64  1  0
 36 65  1  0
 37 66  1  0
M  END
>  <meeko>  (9) 
{"is_sidechain": false}

>  <vina_affinity_kcal_mol>  (9) 
-9.587

>  <pose_rank>  (9) 
9

$$$$

     RDKit          3D

 66 70  0  0  0  0  0  0  0  0999 V2000
  -10.4130    4.9580  -16.1840 C   0  0  0  0  0  0  0  0  0  0  0  0
  -10.9620    4.0990  -15.0780 C   0  0  0  0  0  0  0  0  0  0  0  0
  -12.0930    4.5300  -14.3660 C   0  0  0  0  0  0  0  0  0  0  0  0
  -12.6240    3.7510  -13.3360 C   0  0  0  0  0  0  0  0  0  0  0  0
  -12.0290    2.5320  -12.9970 C   0  0  0  0  0  0  0  0  0  0  0  0
  -12.6250    1.7330  -11.8890 C   0  0  0  0  0  0  0  0  0  0  0  0
  -13.7710    1.9890  -11.5410 O   0  0  0  0  0  0  0  0  0  0  0  0
  -11.7800    0.7890  -11.3320 N   0  0  0  0  0  0  0  0  0  0  0  0
  -12.0790   -0.1280  -10.3030 C   0  0  0  0  0  0  0  0  0  0  0  0
  -12.1370    0.3720   -9.0020 C   0  0  0  0  0  0  0  0  0  0  0  0
  -12.4150   -0.4720   -7.9250 C   0  0  0  0  0  0  0  0  0  0  0  0
  -12.6440   -1.8440   -8.1230 C   0  0  0  0  0  0  0  0  0  0  0  0
  -12.9220   -2.7170   -6.9130 C   0  0  0  0  0  0  0  0  0  0  0  0
  -14.3490   -2.7970   -6.5990 N   0  0  0  0  0  0  0  0  0  0  0  0
  -14.8260   -4.1860   -6.5880 C   0  0  0  0  0  0  0  0  0  0  0  0
  -16.3060   -4.3050   -6.1320 C   0  0  0  0  0  0  0  0  0  0  0  0
  -17.2040   -3.1910   -6.5070 N   0  0  0  0  0  0  0  0  0  0  0  0
  -17.4040   -2.2840   -5.3740 C   0  0  0  0  0  0  0  0  0  0  0  0
  -16.6460   -2.4650   -7.6610 C   0  0  0  0  0  0  0  0  0  0  0  0
  -15.1810   -1.9760   -7.5030 C   0  0  0  0  0  0  0  0  0  0  0  0
  -12.5990   -2.3620   -9.4370 C   0  0  0  0  0  0  0  0  0  0  0  0
  -12.8140   -3.8320   -9.7480 C   0  0  0  0  0  0  0  0  0  0  0  0
  -12.4620   -4.1530  -11.0300 F   0  0  0  0  0  0  0  0  0  0  0  0
  -14.1110   -4.2400   -9.6410 F   0  0  0  0  0  0  0  0  0  0  0  0
  -12.0780   -4.6620   -8.9590 F   0  0  0  0  0  0  0  0  0  0  0  0
  -12.3040   -1.4900  -10.5090 C   0  0  0  0  0  0  0  0  0  0  0  0
  -10.9160    2.0810  -13.7160 C   0  0  0  0  0  0  0  0  0  0  0  0
  -10.3810    2.8630  -14.7480 C   0  0  0  0  0  0  0  0  0  0  0  0
   -9.2370    2.3610  -15.4500 C   0  0  0  0  0  0  0  0  0  0  0  0
   -8.2790    1.9250  -16.0280 C   0  0  0  0  0  0  0  0  0  0  0  0
   -7.1480    1.3990  -16.7070 C   0  0  0  0  0  0  0  0  0  0  0  0
   -6.3980    1.9830  -17.7030 C   0  0  0  0  0  0  0  0  0  0  0  0
   -5.3800    1.1570  -18.1120 N   0  0  0  0  0  0  0  0  0  0  0  0
   -5.5050    0.0730  -17.3760 C   0  0  0  0  0  0  0  0  0  0  0  0
   -4.7490   -1.1210  -17.3510 C   0  0  0  0  0  0  0  0  0  0  0  0
   -5.0860   -2.0920  -16.4930 C   0  0  0  0  0  0  0  0  0  0  0  0
   -6.2490   -1.8420  -15.6090 C   0  0  0  0  0  0  0  0  0  0  0  0
   -6.9790   -0.7730  -15.5820 N   0  0  0  0  0  0  0  0  0  0  0  0
   -6.5730    0.1700  -16.4930 N   0  0  0  0  0  0  0  0  0  0  0  0
   -9.8685    5.8099  -15.7507 H   0  0  0  0  0  0  0  0  0  0  0  0
   -9.7277    4.3625  -16.8051 H   0  0  0  0  0  0  0  0  0  0  0  0
  -11.2413    5.3298  -16.8051 H   0  0  0  0  0  0  0  0  0  0  0  0
  -12.5650    5.4901  -14.6220 H   0  0  0  0  0  0  0  0  0  0  0  0
  -13.5135    4.0975  -12.7894 H   0  0  0  0  0  0  0  0  0  0  0  0
  -10.8170    0.7950  -11.6470 H   0  0  0  0  0  0  0  0  0  0  0  0
  -11.9618    1.4430   -8.8226 H   0  0  0  0  0  0  0  0  0  0  0  0
  -12.4553   -0.0569   -6.9071 H   0  0  0  0  0  0  0  0  0  0  0  0
  -12.5474   -3.7312   -7.1156 H   0  0  0  0  0  0  0  0  0  0  0  0
  -12.4133   -2.2646   -6.0490 H   0  0  0  0  0  0  0  0  0  0  0  0
  -14.7361   -4.5975   -7.6041 H   0  0  0  0  0  0  0  0  0  0  0  0
  -14.2094   -4.7446   -5.8684 H   0  0  0  0  0  0  0  0  0  0  0  0
  -16.7171   -5.2271   -6.5687 H   0  0  0  0  0  0  0  0  0  0  0  0
  -16.2734   -4.2951   -5.0325 H   0  0  0  0  0  0  0  0  0  0  0  0
  -17.2813   -2.8402   -4.4330 H   0  0  0  0  0  0  0  0  0  0  0  0
  -16.6633   -1.4720   -5.4192 H   0  0  0  0  0  0  0  0  0  0  0  0
  -18.4175   -1.8588   -5.4192 H   0  0  0  0  0  0  0  0  0  0  0  0
  -16.6870   -3.1339   -8.5333 H   0  0  0  0  0  0  0  0  0  0  0  0
  -17.2562   -1.5560   -7.7675 H   0  0  0  0  0  0  0  0  0  0  0  0
  -14.7104   -1.9775   -8.4972 H   0  0  0  0  0  0  0  0  0  0  0  0
  -15.2353   -0.9747   -7.0508 H   0  0  0  0  0  0  0  0  0  0  0  0
  -12.2504   -1.8943  -11.5306 H   0  0  0  0  0  0  0  0  0  0  0  0
  -10.4604    1.1104  -13.4702 H   0  0  0  0  0  0  0  0  0  0  0  0
   -6.5897    2.9835  -18.1181 H   0  0  0  0  0  0  0  0  0  0  0  0
   -3.8928   -1.2511  -18.0293 H   0  0  0  0  0  0  0  0  0  0  0  0
   -4.5232   -3.0359  -16.4461 H   0  0  0  0  0  0  0  0  0  0  0  0
   -6.5187   -2.6441  -14.9062 H   0  0  0  0  0  0  0  0  0  0  0  0
  1  2  1  0
  2  3  1  0
  3  4  2  0
  4  5  1  0
  5  6  1  0
  6  7  2  0
  6  8  1  0
  8  9  1  0
  9 10  1  0
 10 11  2  0
 11 12  1  0
 12 13  1  0
 13 14  1  0
 14 15  1  0
 15 16  1  0
 16 17  1  0
 17 18  1  0
 17 19  1  0
 19 20  1  0
 12 21  2  0
 21 22  1  0
 22 23  1  0
 22 24  1  0
 22 25  1  0
 21 26  1  0
  5 27  2  0
 27 28  1  0
 28 29  1  0
 29 30  3  0
 30 31  1  0
 31 32  2  0
 32 33  1  0
 33 34  2  0
 34 35  1  0
 35 36  2  0
 36 37  1  0
 37 38  2  0
 38 39  1  0
 28  2  2  0
 39 31  1  0
 26  9  2  0
 39 34  1  0
 20 14  1  0
  1 40  1  0
  1 41  1  0
  1 42  1  0
  3 43  1  0
  4 44  1  0
  8 45  1  0
 10 46  1  0
 11 47  1  0
 13 48  1  0
 13 49  1  0
 15 50  1  0
 15 51  1  0
 16 52  1  0
 16 53  1  0
 18 54  1  0
 18 55  1  0
 18 56  1  0
 19 57  1  0
 19 58  1  0
 20 59  1  0
 20 60  1  0
 26 61  1  0
 27 62  1  0
 32 63  1  0
 35 64  1  0
 36 65  1  0
 37 66  1  0
M  END
>  <meeko>  (10) 
{"is_sidechain": false}

>  <vina_affinity_kcal_mol>  (10) 
-9.563

>  <pose_rank>  (10) 
10

$$$$
