
     RDKit          3D

 68 72  0  0  0  0  0  0  0  0999 V2000
  -10.0600    6.4000  -18.1710 C   0  0  0  0  0  0  0  0  0  0  0  0
  -10.4660    5.5520  -16.9940 C   0  0  0  0  0  0  0  0  0  0  0  0
  -11.5640    5.9670  -16.2230 C   0  0  0  0  0  0  0  0  0  0  0  0
  -11.9950    5.2250  -15.1230 C   0  0  0  0  0  0  0  0  0  0  0  0
  -11.3340    4.0530  -14.7740 C   0  0  0  0  0  0  0  0  0  0  0  0
  -11.7040    3.2340  -13.6860 N   0  0  0  0  0  0  0  0  0  0  0  0
  -12.9800    2.9890  -13.2110 C   0  0  0  0  0  0  0  0  0  0  0  0
  -14.0230    3.4980  -13.6050 O   0  0  0  0  0  0  0  0  0  0  0  0
  -13.0490    2.0300  -12.0710 C   0  0  0  0  0  0  0  0  0  0  0  0
  -11.9100    1.2840  -11.7580 C   0  0  0  0  0  0  0  0  0  0  0  0
  -11.9340    0.3740  -10.6980 C   0  0  0  0  0  0  0  0  0  0  0  0
  -13.0910    0.2080   -9.9220 C   0  0  0  0  0  0  0  0  0  0  0  0
  -13.1170   -0.7770   -8.7690 C   0  0  0  0  0  0  0  0  0  0  0  0
  -12.8030   -2.1730   -9.0780 N   0  0  0  0  0  0  0  0  0  0  0  0
  -12.2760   -2.9700   -7.9620 C   0  0  0  0  0  0  0  0  0  0  0  0
  -13.2010   -4.1250   -7.5120 C   0  0  0  0  0  0  0  0  0  0  0  0
  -13.6010   -5.0530   -8.5920 N   0  0  0  0  0  0  0  0  0  0  0  0
  -12.7980   -6.2710   -8.5900 C   0  0  0  0  0  0  0  0  0  0  0  0
  -13.5490   -4.3980   -9.9170 C   0  0  0  0  0  0  0  0  0  0  0  0
  -13.8380   -2.8820   -9.8430 C   0  0  0  0  0  0  0  0  0  0  0  0
  -14.2280    0.9670  -10.2410 C   0  0  0  0  0  0  0  0  0  0  0  0
  -14.2090    1.8780  -11.3010 C   0  0  0  0  0  0  0  0  0  0  0  0
  -10.2380    3.6360  -15.5450 C   0  0  0  0  0  0  0  0  0  0  0  0
   -9.7780    4.3650  -16.6550 C   0  0  0  0  0  0  0  0  0  0  0  0
   -8.6870    3.9430  -17.4320 N   0  0  0  0  0  0  0  0  0  0  0  0
   -7.3860    3.5330  -17.1550 C   0  0  0  0  0  0  0  0  0  0  0  0
   -6.3540    4.3860  -17.1250 N   0  0  0  0  0  0  0  0  0  0  0  0
   -5.1440    3.8780  -16.8410 C   0  0  0  0  0  0  0  0  0  0  0  0
   -4.9210    2.5500  -16.5780 C   0  0  0  0  0  0  0  0  0  0  0  0
   -6.0280    1.7290  -16.6210 C   0  0  0  0  0  0  0  0  0  0  0  0
   -5.9660    0.2800  -16.3630 C   0  0  0  0  0  0  0  0  0  0  0  0
   -4.9060   -0.5330  -16.7950 C   0  0  0  0  0  0  0  0  0  0  0  0
   -4.9040   -1.9020  -16.5240 C   0  0  0  0  0  0  0  0  0  0  0  0
   -5.9690   -2.4360  -15.8210 C   0  0  0  0  0  0  0  0  0  0  0  0
   -7.0080   -1.7040  -15.3790 N   0  0  0  0  0  0  0  0  0  0  0  0
   -6.9770   -0.3740  -15.6540 C   0  0  0  0  0  0  0  0  0  0  0  0
   -7.2540    2.2180  -16.9150 N   0  0  0  0  0  0  0  0  0  0  0  0
   -9.6113    7.3373  -17.8102 H   0  0  0  0  0  0  0  0  0  0  0  0
   -9.3261    5.8531  -18.7811 H   0  0  0  0  0  0  0  0  0  0  0  0
  -10.9462    6.6288  -18.7811 H   0  0  0  0  0  0  0  0  0  0  0  0
  -12.0934    6.8932  -16.4911 H   0  0  0  0  0  0  0  0  0  0  0  0
  -12.8574    5.5672  -14.5322 H   0  0  0  0  0  0  0  0  0  0  0  0
  -10.9330    2.8390  -13.1620 H   0  0  0  0  0  0  0  0  0  0  0  0
  -10.9909    1.4135  -12.3483 H   0  0  0  0  0  0  0  0  0  0  0  0
  -11.0360   -0.2187  -10.4694 H   0  0  0  0  0  0  0  0  0  0  0  0
  -12.3884   -0.4311   -8.0210 H   0  0  0  0  0  0  0  0  0  0  0  0
  -14.1628   -0.7890   -8.4282 H   0  0  0  0  0  0  0  0  0  0  0  0
  -11.3124   -3.4010   -8.2713 H   0  0  0  0  0  0  0  0  0  0  0  0
  -12.1836   -2.2880   -7.1039 H   0  0  0  0  0  0  0  0  0  0  0  0
  -12.6743   -4.7047   -6.7397 H   0  0  0  0  0  0  0  0  0  0  0  0
  -14.1267   -3.6570   -7.1458 H   0  0  0  0  0  0  0  0  0  0  0  0
  -12.5970   -6.5759   -7.5524 H   0  0  0  0  0  0  0  0  0  0  0  0
  -13.3456   -7.0721   -9.1080 H   0  0  0  0  0  0  0  0  0  0  0  0
  -11.8459   -6.0834   -9.1080 H   0  0  0  0  0  0  0  0  0  0  0  0
  -12.5456   -4.5448  -10.3433 H   0  0  0  0  0  0  0  0  0  0  0  0
  -14.3279   -4.8550  -10.5450 H   0  0  0  0  0  0  0  0  0  0  0  0
  -13.8702   -2.4740  -10.8640 H   0  0  0  0  0  0  0  0  0  0  0  0
  -14.8024   -2.7390   -9.3335 H   0  0  0  0  0  0  0  0  0  0  0  0
  -15.1466    0.8431   -9.6486 H   0  0  0  0  0  0  0  0  0  0  0  0
  -15.1041    2.4749  -11.5302 H   0  0  0  0  0  0  0  0  0  0  0  0
   -9.7203    2.7050  -15.2706 H   0  0  0  0  0  0  0  0  0  0  0  0
   -8.8090    3.9470  -18.4330 H   0  0  0  0  0  0  0  0  0  0  0  0
   -4.2845    4.5641  -16.8179 H   0  0  0  0  0  0  0  0  0  0  0  0
   -3.9178    2.1629  -16.3464 H   0  0  0  0  0  0  0  0  0  0  0  0
   -4.0692   -0.0867  -17.3523 H   0  0  0  0  0  0  0  0  0  0  0  0
   -4.0750   -2.5414  -16.8615 H   0  0  0  0  0  0  0  0  0  0  0  0
   -5.9664   -3.5160  -15.6123 H   0  0  0  0  0  0  0  0  0  0  0  0
   -7.8154    0.2374  -15.2891 H   0  0  0  0  0  0  0  0  0  0  0  0
  1  2  1  0
  2  3  1  0
  3  4  2  0
  4  5  1  0
  5  6  1  0
  6  7  1  0
  7  8  2  0
  7  9  1  0
  9 10  1  0
 10 11  2  0
 11 12  1  0
 12 13  1  0
 13 14  1  0
 14 15  1  0
 15 16  1  0
 16 17  1  0
 17 18  1  0
 17 19  1  0
 19 20  1  0
 12 21  2  0
 21 22  1  0
  5 23  2  0
 23 24  1  0
 24 25  1  0
 25 26  1  0
 26 27  2  0
 27 28  1  0
 28 29  2  0
 29 30  1  0
 30 31  1  0
 31 32  1  0
 32 33  2  0
 33 34  1  0
 34 35  2  0
 35 36  1  0
 30 37  2  0
 24  2  2  0
 37 26  1  0
 22  9  2  0
 36 31  2  0
 20 14  1  0
  1 38  1  0
  1 39  1  0
  1 40  1  0
  3 41  1  0
  4 42  1  0
  6 43  1  0
 10 44  1  0
 11 45  1  0
 13 46  1  0
 13 47  1  0
 15 48  1  0
 15 49  1  0
 16 50  1  0
 16 51  1  0
 18 52  1  0
 18 53  1  0
 18 54  1  0
 19 55  1  0
 19 56  1  0
 20 57  1  0
 20 58  1  0
 21 59  1  0
 22 60  1  0
 23 61  1  0
 25 62  1  0
 28 63  1  0
 29 64  1  0
 32 65  1  0
 33 66  1  0
 34 67  1  0
 36 68  1  0
M  END
>  <meeko>  (1) 
{"is_sidechain": false}

>  <vina_affinity_kcal_mol>  (1) 
-10.079

>  <pose_rank>  (1) 
1

$$$$

     RDKit          3D

 68 72  0  0  0  0  0  0  0  0999 V2000
  -10.0380    6.3110  -18.2850 C   0  0  0  0  0  0  0  0  0  0  0  0
  -10.4390    5.4950  -17.0840 C   0  0  0  0  0  0  0  0  0  0  0  0
  -11.5430    5.9230  -16.3290 C   0  0  0  0  0  0  0  0  0  0  0  0
  -11.9700    5.2110  -15.2080 C   0  0  0  0  0  0  0  0  0  0  0  0
  -11.2990    4.0570  -14.8210 C   0  0  0  0  0  0  0  0  0  0  0  0
  -11.6640    3.2680  -13.7090 N   0  0  0  0  0  0  0  0  0  0  0  0
  -12.9420    2.9850  -13.2600 C   0  0  0  0  0  0  0  0  0  0  0  0
  -13.9940    3.4290  -13.7040 O   0  0  0  0  0  0  0  0  0  0  0  0
  -13.0020    2.0720  -12.0820 C   0  0  0  0  0  0  0  0  0  0  0  0
  -14.2100    1.9610  -11.3860 C   0  0  0  0  0  0  0  0  0  0  0  0
  -14.3070    1.1180  -10.2770 C   0  0  0  0  0  0  0  0  0  0  0  0
  -13.2060    0.3570   -9.8560 C   0  0  0  0  0  0  0  0  0  0  0  0
  -13.3120   -0.5620   -8.6540 C   0  0  0  0  0  0  0  0  0  0  0  0
  -14.6580   -0.8760   -8.1720 N   0  0  0  0  0  0  0  0  0  0  0  0
  -15.0120   -2.3010   -8.1500 C   0  0  0  0  0  0  0  0  0  0  0  0
  -15.2490   -2.8770   -6.7340 C   0  0  0  0  0  0  0  0  0  0  0  0
  -16.2470   -2.1420   -5.9280 N   0  0  0  0  0  0  0  0  0  0  0  0
  -17.5510   -2.7990   -5.9430 C   0  0  0  0  0  0  0  0  0  0  0  0
  -16.3690   -0.7350   -6.3650 C   0  0  0  0  0  0  0  0  0  0  0  0
  -15.0490   -0.1750   -6.9400 C   0  0  0  0  0  0  0  0  0  0  0  0
  -12.0000    0.4700  -10.5660 C   0  0  0  0  0  0  0  0  0  0  0  0
  -11.8980    1.3140  -11.6760 C   0  0  0  0  0  0  0  0  0  0  0  0
  -10.1970    3.6270  -15.5760 C   0  0  0  0  0  0  0  0  0  0  0  0
   -9.7410    4.3260  -16.7070 C   0  0  0  0  0  0  0  0  0  0  0  0
   -8.6440    3.8910  -17.4680 N   0  0  0  0  0  0  0  0  0  0  0  0
   -7.3450    3.4840  -17.1730 C   0  0  0  0  0  0  0  0  0  0  0  0
   -6.3160    4.3390  -17.1290 N   0  0  0  0  0  0  0  0  0  0  0  0
   -5.1090    3.8330  -16.8290 C   0  0  0  0  0  0  0  0  0  0  0  0
   -4.8870    2.5060  -16.5630 C   0  0  0  0  0  0  0  0  0  0  0  0
   -5.9920    1.6830  -16.6200 C   0  0  0  0  0  0  0  0  0  0  0  0
   -5.9300    0.2340  -16.3610 C   0  0  0  0  0  0  0  0  0  0  0  0
   -4.8460   -0.5710  -16.7460 C   0  0  0  0  0  0  0  0  0  0  0  0
   -4.8460   -1.9400  -16.4770 C   0  0  0  0  0  0  0  0  0  0  0  0
   -5.9360   -2.4830  -15.8220 C   0  0  0  0  0  0  0  0  0  0  0  0
   -7.0000   -1.7590  -15.4260 N   0  0  0  0  0  0  0  0  0  0  0  0
   -6.9670   -0.4280  -15.6980 C   0  0  0  0  0  0  0  0  0  0  0  0
   -7.2150    2.1690  -16.9310 N   0  0  0  0  0  0  0  0  0  0  0  0
   -9.5757    7.2517  -17.9514 H   0  0  0  0  0  0  0  0  0  0  0  0
   -9.3167    5.7425  -18.8903 H   0  0  0  0  0  0  0  0  0  0  0  0
  -10.9288    6.5347  -18.8903 H   0  0  0  0  0  0  0  0  0  0  0  0
  -12.0804    6.8355  -16.6267 H   0  0  0  0  0  0  0  0  0  0  0  0
  -12.8376    5.5628  -14.6305 H   0  0  0  0  0  0  0  0  0  0  0  0
  -10.8930    2.9300  -13.1480 H   0  0  0  0  0  0  0  0  0  0  0  0
  -15.0865    2.5396  -11.7132 H   0  0  0  0  0  0  0  0  0  0  0  0
  -15.2573    1.0498   -9.7273 H   0  0  0  0  0  0  0  0  0  0  0  0
  -12.8248   -1.5120   -8.9191 H   0  0  0  0  0  0  0  0  0  0  0  0
  -12.8362   -0.0096   -7.8303 H   0  0  0  0  0  0  0  0  0  0  0  0
  -15.9335   -2.4360   -8.7353 H   0  0  0  0  0  0  0  0  0  0  0  0
  -14.1538   -2.8450   -8.5714 H   0  0  0  0  0  0  0  0  0  0  0  0
  -15.5924   -3.9167   -6.8399 H   0  0  0  0  0  0  0  0  0  0  0  0
  -14.2920   -2.7902   -6.1987 H   0  0  0  0  0  0  0  0  0  0  0  0
  -17.8879   -2.9688   -4.9097 H   0  0  0  0  0  0  0  0  0  0  0  0
  -18.2778   -2.1595   -6.4653 H   0  0  0  0  0  0  0  0  0  0  0  0
  -17.4696   -3.7637   -6.4653 H   0  0  0  0  0  0  0  0  0  0  0  0
  -17.1457   -0.6733   -7.1415 H   0  0  0  0  0  0  0  0  0  0  0  0
  -16.6296   -0.1332   -5.4818 H   0  0  0  0  0  0  0  0  0  0  0  0
  -15.1814    0.8939   -7.1635 H   0  0  0  0  0  0  0  0  0  0  0  0
  -14.2562   -0.3232   -6.1920 H   0  0  0  0  0  0  0  0  0  0  0  0
  -11.1242   -0.1129  -10.2449 H   0  0  0  0  0  0  0  0  0  0  0  0
  -10.9502    1.3822  -12.2300 H   0  0  0  0  0  0  0  0  0  0  0  0
   -9.6712    2.7100  -15.2718 H   0  0  0  0  0  0  0  0  0  0  0  0
   -8.7570    3.8800  -18.4700 H   0  0  0  0  0  0  0  0  0  0  0  0
   -4.2511    4.5206  -16.7947 H   0  0  0  0  0  0  0  0  0  0  0  0
   -3.8861    2.1207  -16.3185 H   0  0  0  0  0  0  0  0  0  0  0  0
   -3.9884   -0.1179  -17.2648 H   0  0  0  0  0  0  0  0  0  0  0  0
   -3.9984   -2.5728  -16.7790 H   0  0  0  0  0  0  0  0  0  0  0  0
   -5.9338   -3.5631  -15.6135 H   0  0  0  0  0  0  0  0  0  0  0  0
   -7.8253    0.1768  -15.3701 H   0  0  0  0  0  0  0  0  0  0  0  0
  1  2  1  0
  2  3  1  0
  3  4  2  0
  4  5  1  0
  5  6  1  0
  6  7  1  0
  7  8  2  0
  7  9  1  0
  9 10  1  0
 10 11  2  0
 11 12  1  0
 12 13  1  0
 13 14  1  0
 14 15  1  0
 15 16  1  0
 16 17  1  0
 17 18  1  0
 17 19  1  0
 19 20  1  0
 12 21  2  0
 21 22  1  0
  5 23  2  0
 23 24  1  0
 24 25  1  0
 25 26  1  0
 26 27  2  0
 27 28  1  0
 28 29  2  0
 29 30  1  0
 30 31  1  0
 31 32  1  0
 32 33  2  0
 33 34  1  0
 34 35  2  0
 35 36  1  0
 30 37  2  0
 24  2  2  0
 37 26  1  0
 22  9  2  0
 36 31  2  0
 20 14  1  0
  1 38  1  0
  1 39  1  0
  1 40  1  0
  3 41  1  0
  4 42  1  0
  6 43  1  0
 10 44  1  0
 11 45  1  0
 13 46  1  0
 13 47  1  0
 15 48  1  0
 15 49  1  0
 16 50  1  0
 16 51  1  0
 18 52  1  0
 18 53  1  0
 18 54  1  0
 19 55  1  0
 19 56  1  0
 20 57  1  0
 20 58  1  0
 21 59  1  0
 22 60  1  0
 23 61  1  0
 25 62  1  0
 28 63  1  0
 29 64  1  0
 32 65  1  0
 33 66  1  0
 34 67  1  0
 36 68  1  0
M  END
>  <meeko>  (2) 
{"is_sidechain": false}

>  <vina_affinity_kcal_mol>  (2) 
-9.883

>  <pose_rank>  (2) 
2

$$$$

     RDKit          3D

 68 72  0  0  0  0  0  0  0  0999 V2000
   -9.6010    5.8140  -18.1680 C   0  0  0  0  0  0  0  0  0  0  0  0
  -10.0670    5.0700  -16.9440 C   0  0  0  0  0  0  0  0  0  0  0  0
  -11.1450    5.6010  -16.2150 C   0  0  0  0  0  0  0  0  0  0  0  0
  -11.6290    4.9590  -15.0740 C   0  0  0  0  0  0  0  0  0  0  0  0
  -11.0440    3.7750  -14.6420 C   0  0  0  0  0  0  0  0  0  0  0  0
  -11.4720    3.0520  -13.5080 N   0  0  0  0  0  0  0  0  0  0  0  0
  -12.7550    2.6250  -13.2160 C   0  0  0  0  0  0  0  0  0  0  0  0
  -13.7720    2.8580  -13.8570 O   0  0  0  0  0  0  0  0  0  0  0  0
  -12.8780    1.8330  -11.9590 C   0  0  0  0  0  0  0  0  0  0  0  0
  -14.1180    1.7950  -11.3140 C   0  0  0  0  0  0  0  0  0  0  0  0
  -14.2760    1.0660  -10.1330 C   0  0  0  0  0  0  0  0  0  0  0  0
  -13.2020    0.3460   -9.5860 C   0  0  0  0  0  0  0  0  0  0  0  0
  -13.3720   -0.4490   -8.3070 C   0  0  0  0  0  0  0  0  0  0  0  0
  -13.4400   -1.9060   -8.4320 N   0  0  0  0  0  0  0  0  0  0  0  0
  -13.9560   -2.4130   -9.7110 C   0  0  0  0  0  0  0  0  0  0  0  0
  -12.9220   -3.2010  -10.5490 C   0  0  0  0  0  0  0  0  0  0  0  0
  -12.2750   -4.3230   -9.8360 N   0  0  0  0  0  0  0  0  0  0  0  0
  -12.8830   -5.6060  -10.1740 C   0  0  0  0  0  0  0  0  0  0  0  0
  -12.2850   -4.1140   -8.3720 C   0  0  0  0  0  0  0  0  0  0  0  0
  -12.2350   -2.6190   -7.9850 C   0  0  0  0  0  0  0  0  0  0  0  0
  -11.9630    0.3850  -10.2450 C   0  0  0  0  0  0  0  0  0  0  0  0
  -11.8010    1.1150  -11.4270 C   0  0  0  0  0  0  0  0  0  0  0  0
   -9.9690    3.2430  -15.3720 C   0  0  0  0  0  0  0  0  0  0  0  0
   -9.4560    3.8690  -16.5210 C   0  0  0  0  0  0  0  0  0  0  0  0
   -8.3870    3.3320  -17.2560 N   0  0  0  0  0  0  0  0  0  0  0  0
   -7.5910    2.1960  -17.1420 C   0  0  0  0  0  0  0  0  0  0  0  0
   -6.7160    1.8330  -18.0870 N   0  0  0  0  0  0  0  0  0  0  0  0
   -5.9970    0.7210  -17.8660 C   0  0  0  0  0  0  0  0  0  0  0  0
   -6.1110   -0.0440  -16.7330 C   0  0  0  0  0  0  0  0  0  0  0  0
   -7.0280    0.3900  -15.7980 C   0  0  0  0  0  0  0  0  0  0  0  0
   -7.2750   -0.3130  -14.5270 C   0  0  0  0  0  0  0  0  0  0  0  0
   -8.3620   -0.0230  -13.6870 C   0  0  0  0  0  0  0  0  0  0  0  0
   -8.5420   -0.7200  -12.4920 C   0  0  0  0  0  0  0  0  0  0  0  0
   -7.6280   -1.7020  -12.1570 C   0  0  0  0  0  0  0  0  0  0  0  0
   -6.5720   -2.0250  -12.9260 N   0  0  0  0  0  0  0  0  0  0  0  0
   -6.4260   -1.3320  -14.0850 C   0  0  0  0  0  0  0  0  0  0  0  0
   -7.7700    1.5010  -16.0050 N   0  0  0  0  0  0  0  0  0  0  0  0
   -9.0402    6.7093  -17.8615 H   0  0  0  0  0  0  0  0  0  0  0  0
   -8.9501    5.1613  -18.7682 H   0  0  0  0  0  0  0  0  0  0  0  0
  -10.4724    6.1148  -18.7682 H   0  0  0  0  0  0  0  0  0  0  0  0
  -11.6149    6.5378  -16.5491 H   0  0  0  0  0  0  0  0  0  0  0  0
  -12.4736    5.3904  -14.5168 H   0  0  0  0  0  0  0  0  0  0  0  0
  -10.7610    2.8930  -12.8050 H   0  0  0  0  0  0  0  0  0  0  0  0
  -14.9730    2.3417  -11.7385 H   0  0  0  0  0  0  0  0  0  0  0  0
  -15.2522    1.0559   -9.6262 H   0  0  0  0  0  0  0  0  0  0  0  0
  -12.5195   -0.2118   -7.6535 H   0  0  0  0  0  0  0  0  0  0  0  0
  -14.3554   -0.1506   -7.9148 H   0  0  0  0  0  0  0  0  0  0  0  0
  -14.8064   -3.0780   -9.4997 H   0  0  0  0  0  0  0  0  0  0  0  0
  -14.2383   -1.5327  -10.3071 H   0  0  0  0  0  0  0  0  0  0  0  0
  -13.4355   -3.6073  -11.4329 H   0  0  0  0  0  0  0  0  0  0  0  0
  -12.1211   -2.4907  -10.8021 H   0  0  0  0  0  0  0  0  0  0  0  0
  -13.1386   -6.1454   -9.2500 H   0  0  0  0  0  0  0  0  0  0  0  0
  -13.7959   -5.4352  -10.7634 H   0  0  0  0  0  0  0  0  0  0  0  0
  -12.1727   -6.2044  -10.7634 H   0  0  0  0  0  0  0  0  0  0  0  0
  -13.2049   -4.5541   -7.9595 H   0  0  0  0  0  0  0  0  0  0  0  0
  -11.3853   -4.5950   -7.9606 H   0  0  0  0  0  0  0  0  0  0  0  0
  -12.1555   -2.5355   -6.8911 H   0  0  0  0  0  0  0  0  0  0  0  0
  -11.3626   -2.1642   -8.4770 H   0  0  0  0  0  0  0  0  0  0  0  0
  -11.1081   -0.1660   -9.8261 H   0  0  0  0  0  0  0  0  0  0  0  0
  -10.8271    1.1248  -11.9384 H   0  0  0  0  0  0  0  0  0  0  0  0
   -9.5117    2.3020  -15.0322 H   0  0  0  0  0  0  0  0  0  0  0  0
   -8.0580    3.8680  -18.0440 H   0  0  0  0  0  0  0  0  0  0  0  0
   -5.2770    0.4060  -18.6356 H   0  0  0  0  0  0  0  0  0  0  0  0
   -5.5068   -0.9502  -16.5790 H   0  0  0  0  0  0  0  0  0  0  0  0
   -9.0783    0.7610  -13.9738 H   0  0  0  0  0  0  0  0  0  0  0  0
   -9.3918   -0.4935  -11.8312 H   0  0  0  0  0  0  0  0  0  0  0  0
   -7.7716   -2.2476  -11.2127 H   0  0  0  0  0  0  0  0  0  0  0  0
   -5.5718   -1.5933  -14.7269 H   0  0  0  0  0  0  0  0  0  0  0  0
  1  2  1  0
  2  3  1  0
  3  4  2  0
  4  5  1  0
  5  6  1  0
  6  7  1  0
  7  8  2  0
  7  9  1  0
  9 10  1  0
 10 11  2  0
 11 12  1  0
 12 13  1  0
 13 14  1  0
 14 15  1  0
 15 16  1  0
 16 17  1  0
 17 18  1  0
 17 19  1  0
 19 20  1  0
 12 21  2  0
 21 22  1  0
  5 23  2  0
 23 24  1  0
 24 25  1  0
 25 26  1  0
 26 27  2  0
 27 28  1  0
 28 29  2  0
 29 30  1  0
 30 31  1  0
 31 32  1  0
 32 33  2  0
 33 34  1  0
 34 35  2  0
 35 36  1  0
 30 37  2  0
 24  2  2  0
 37 26  1  0
 22  9  2  0
 36 31  2  0
 20 14  1  0
  1 38  1  0
  1 39  1  0
  1 40  1  0
  3 41  1  0
  4 42  1  0
  6 43  1  0
 10 44  1  0
 11 45  1  0
 13 46  1  0
 13 47  1  0
 15 48  1  0
 15 49  1  0
 16 50  1  0
 16 51  1  0
 18 52  1  0
 18 53  1  0
 18 54  1  0
 19 55  1  0
 19 56  1  0
 20 57  1  0
 20 58  1  0
 21 59  1  0
 22 60  1  0
 23 61  1  0
 25 62  1  0
 28 63  1  0
 29 64  1  0
 32 65  1  0
 33 66  1  0
 34 67  1  0
 36 68  1  0
M  END
>  <meeko>  (3) 
{"is_sidechain": false}

>  <vina_affinity_kcal_mol>  (3) 
-9.815

>  <pose_rank>  (3) 
3

$$$$

     RDKit          3D

 68 72  0  0  0  0  0  0  0  0999 V2000
   -9.6260    6.7500  -17.8430 C   0  0  0  0  0  0  0  0  0  0  0  0
   -8.9910    5.4520  -17.4160 C   0  0  0  0  0  0  0  0  0  0  0  0
   -7.7930    5.0630  -18.0390 C   0  0  0  0  0  0  0  0  0  0  0  0
   -7.1510    3.8750  -17.6880 C   0  0  0  0  0  0  0  0  0  0  0  0
   -7.6960    3.0550  -16.7080 C   0  0  0  0  0  0  0  0  0  0  0  0
   -7.1130    1.8420  -16.2810 N   0  0  0  0  0  0  0  0  0  0  0  0
   -6.3180    1.6350  -15.1670 C   0  0  0  0  0  0  0  0  0  0  0  0
   -5.9140    2.4850  -14.3830 O   0  0  0  0  0  0  0  0  0  0  0  0
   -5.8950    0.2210  -14.9560 C   0  0  0  0  0  0  0  0  0  0  0  0
   -6.3690   -0.7560  -15.8370 C   0  0  0  0  0  0  0  0  0  0  0  0
   -5.9970   -2.0920  -15.6720 C   0  0  0  0  0  0  0  0  0  0  0  0
   -5.1310   -2.4730  -14.6360 C   0  0  0  0  0  0  0  0  0  0  0  0
   -4.7230   -3.9220  -14.4580 C   0  0  0  0  0  0  0  0  0  0  0  0
   -4.8360   -4.7940  -15.6290 N   0  0  0  0  0  0  0  0  0  0  0  0
   -3.5960   -5.0070  -16.3880 C   0  0  0  0  0  0  0  0  0  0  0  0
   -3.0760   -6.4620  -16.3640 C   0  0  0  0  0  0  0  0  0  0  0  0
   -4.0600   -7.4780  -16.7970 N   0  0  0  0  0  0  0  0  0  0  0  0
   -3.8520   -7.8830  -18.1830 C   0  0  0  0  0  0  0  0  0  0  0  0
   -5.4480   -7.0080  -16.5960 C   0  0  0  0  0  0  0  0  0  0  0  0
   -5.5800   -6.0400  -15.3990 C   0  0  0  0  0  0  0  0  0  0  0  0
   -4.6550   -1.4830  -13.7610 C   0  0  0  0  0  0  0  0  0  0  0  0
   -5.0250   -0.1450  -13.9210 C   0  0  0  0  0  0  0  0  0  0  0  0
   -8.8910    3.4430  -16.0830 C   0  0  0  0  0  0  0  0  0  0  0  0
   -9.5640    4.6310  -16.4190 C   0  0  0  0  0  0  0  0  0  0  0  0
  -10.7550    5.0250  -15.7890 N   0  0  0  0  0  0  0  0  0  0  0  0
  -11.6880    4.3930  -14.9720 C   0  0  0  0  0  0  0  0  0  0  0  0
  -12.9210    4.8770  -14.7790 N   0  0  0  0  0  0  0  0  0  0  0  0
  -13.7370    4.1780  -13.9740 C   0  0  0  0  0  0  0  0  0  0  0  0
  -13.3750    3.0090  -13.3560 C   0  0  0  0  0  0  0  0  0  0  0  0
  -12.0930    2.5650  -13.6020 C   0  0  0  0  0  0  0  0  0  0  0  0
  -11.5440    1.3280  -13.0190 C   0  0  0  0  0  0  0  0  0  0  0  0
  -11.7190    0.9680  -11.6740 C   0  0  0  0  0  0  0  0  0  0  0  0
  -11.1710   -0.2150  -11.1770 C   0  0  0  0  0  0  0  0  0  0  0  0
  -10.4550   -1.0230  -12.0410 C   0  0  0  0  0  0  0  0  0  0  0  0
  -10.2600   -0.7310  -13.3400 N   0  0  0  0  0  0  0  0  0  0  0  0
  -10.8100    0.4260  -13.7940 C   0  0  0  0  0  0  0  0  0  0  0  0
  -11.2500    3.2580  -14.4010 N   0  0  0  0  0  0  0  0  0  0  0  0
   -9.9097    7.3299  -16.9523 H   0  0  0  0  0  0  0  0  0  0  0  0
   -8.9092    7.3286  -18.4442 H   0  0  0  0  0  0  0  0  0  0  0  0
  -10.5227    6.5392  -18.4442 H   0  0  0  0  0  0  0  0  0  0  0  0
   -7.3541    5.7058  -18.8163 H   0  0  0  0  0  0  0  0  0  0  0  0
   -6.2137    3.5878  -18.1870 H   0  0  0  0  0  0  0  0  0  0  0  0
   -7.2460    1.0570  -16.9050 H   0  0  0  0  0  0  0  0  0  0  0  0
   -7.0373   -0.4712  -16.6630 H   0  0  0  0  0  0  0  0  0  0  0  0
   -6.3875   -2.8543  -16.3622 H   0  0  0  0  0  0  0  0  0  0  0  0
   -3.6711   -3.9333  -14.1364 H   0  0  0  0  0  0  0  0  0  0  0  0
   -5.4362   -4.3315  -13.7275 H   0  0  0  0  0  0  0  0  0  0  0  0
   -3.7805   -4.7246  -17.4350 H   0  0  0  0  0  0  0  0  0  0  0  0
   -2.8232   -4.3890  -15.9075 H   0  0  0  0  0  0  0  0  0  0  0  0
   -2.2031   -6.5248  -17.0304 H   0  0  0  0  0  0  0  0  0  0  0  0
   -2.8370   -6.6889  -15.3145 H   0  0  0  0  0  0  0  0  0  0  0  0
   -3.3496   -8.8613  -18.2077 H   0  0  0  0  0  0  0  0  0  0  0  0
   -4.8237   -7.9569  -18.6932 H   0  0  0  0  0  0  0  0  0  0  0  0
   -3.2258   -7.1362  -18.6932 H   0  0  0  0  0  0  0  0  0  0  0  0
   -5.7796   -6.4887  -17.5073 H   0  0  0  0  0  0  0  0  0  0  0  0
   -6.0705   -7.8893  -16.3820 H   0  0  0  0  0  0  0  0  0  0  0  0
   -6.6429   -5.7992  -15.2497 H   0  0  0  0  0  0  0  0  0  0  0  0
   -5.1611   -6.5326  -14.5091 H   0  0  0  0  0  0  0  0  0  0  0  0
   -3.9815   -1.7647  -12.9382 H   0  0  0  0  0  0  0  0  0  0  0  0
   -4.6333    0.6202  -13.2347 H   0  0  0  0  0  0  0  0  0  0  0  0
   -9.3163    2.7948  -15.3026 H   0  0  0  0  0  0  0  0  0  0  0  0
  -11.0720    5.9670  -15.9570 H   0  0  0  0  0  0  0  0  0  0  0  0
  -14.7521    4.5646  -13.8007 H   0  0  0  0  0  0  0  0  0  0  0  0
  -14.0667    2.4576  -12.7022 H   0  0  0  0  0  0  0  0  0  0  0  0
  -12.2939    1.6250  -11.0048 H   0  0  0  0  0  0  0  0  0  0  0  0
  -11.3054   -0.4982  -10.1226 H   0  0  0  0  0  0  0  0  0  0  0  0
  -10.0219   -1.9536  -11.6455 H   0  0  0  0  0  0  0  0  0  0  0  0
  -10.6659    0.6721  -14.8564 H   0  0  0  0  0  0  0  0  0  0  0  0
  1  2  1  0
  2  3  1  0
  3  4  2  0
  4  5  1  0
  5  6  1  0
  6  7  1  0
  7  8  2  0
  7  9  1  0
  9 10  1  0
 10 11  2  0
 11 12  1  0
 12 13  1  0
 13 14  1  0
 14 15  1  0
 15 16  1  0
 16 17  1  0
 17 18  1  0
 17 19  1  0
 19 20  1  0
 12 21  2  0
 21 22  1  0
  5 23  2  0
 23 24  1  0
 24 25  1  0
 25 26  1  0
 26 27  2  0
 27 28  1  0
 28 29  2  0
 29 30  1  0
 30 31  1  0
 31 32  1  0
 32 33  2  0
 33 34  1  0
 34 35  2  0
 35 36  1  0
 30 37  2  0
 24  2  2  0
 37 26  1  0
 22  9  2  0
 36 31  2  0
 20 14  1  0
  1 38  1  0
  1 39  1  0
  1 40  1  0
  3 41  1  0
  4 42  1  0
  6 43  1  0
 10 44  1  0
 11 45  1  0
 13 46  1  0
 13 47  1  0
 15 48  1  0
 15 49  1  0
 16 50  1  0
 16 51  1  0
 18 52  1  0
 18 53  1  0
 18 54  1  0
 19 55  1  0
 19 56  1  0
 20 57  1  0
 20 58  1  0
 21 59  1  0
 22 60  1  0
 23 61  1  0
 25 62  1  0
 28 63  1  0
 29 64  1  0
 32 65  1  0
 33 66  1  0
 34 67  1  0
 36 68  1  0
M  END
>  <meeko>  (4) 
{"is_sidechain": false}

>  <vina_affinity_kcal_mol>  (4) 
-9.605

>  <pose_rank>  (4) 
4

$$$$

     RDKit          3D

 68 72  0  0  0  0  0  0  0  0999 V2000
   -9.9980    5.9830  -17.8340 C   0  0  0  0  0  0  0  0  0  0  0  0
  -10.4190    5.1490  -16.6520 C   0  0  0  0  0  0  0  0  0  0  0  0
  -11.4410    5.6400  -15.8230 C   0  0  0  0  0  0  0  0  0  0  0  0
  -11.8810    4.9160  -14.7150 C   0  0  0  0  0  0  0  0  0  0  0  0
  -11.3060    3.6870  -14.4150 C   0  0  0  0  0  0  0  0  0  0  0  0
  -11.6920    2.8810  -13.3230 N   0  0  0  0  0  0  0  0  0  0  0  0
  -12.9700    2.6840  -12.8320 C   0  0  0  0  0  0  0  0  0  0  0  0
  -13.9980    3.2320  -13.2120 O   0  0  0  0  0  0  0  0  0  0  0  0
  -13.0610    1.7270  -11.6920 C   0  0  0  0  0  0  0  0  0  0  0  0
  -11.9280    0.9810  -11.3560 C   0  0  0  0  0  0  0  0  0  0  0  0
  -11.9720    0.0730  -10.2950 C   0  0  0  0  0  0  0  0  0  0  0  0
  -13.1430   -0.0910   -9.5400 C   0  0  0  0  0  0  0  0  0  0  0  0
  -13.1910   -1.0740   -8.3860 C   0  0  0  0  0  0  0  0  0  0  0  0
  -12.2810   -0.8300   -7.2660 N   0  0  0  0  0  0  0  0  0  0  0  0
  -11.0250   -1.5910   -7.2870 C   0  0  0  0  0  0  0  0  0  0  0  0
   -9.7560   -0.7220   -7.4510 C   0  0  0  0  0  0  0  0  0  0  0  0
   -9.6190    0.3650   -6.4580 N   0  0  0  0  0  0  0  0  0  0  0  0
   -8.7070    0.0050   -5.3770 C   0  0  0  0  0  0  0  0  0  0  0  0
  -10.9330    0.7730   -5.9150 C   0  0  0  0  0  0  0  0  0  0  0  0
  -12.0800    0.5880   -6.9340 C   0  0  0  0  0  0  0  0  0  0  0  0
  -14.2740    0.6680   -9.8820 C   0  0  0  0  0  0  0  0  0  0  0  0
  -14.2350    1.5770  -10.9430 C   0  0  0  0  0  0  0  0  0  0  0  0
  -10.2850    3.1950  -15.2440 C   0  0  0  0  0  0  0  0  0  0  0  0
   -9.8180    3.9030  -16.3640 C   0  0  0  0  0  0  0  0  0  0  0  0
   -8.8030    3.4070  -17.1980 N   0  0  0  0  0  0  0  0  0  0  0  0
   -7.4630    3.0760  -17.0210 C   0  0  0  0  0  0  0  0  0  0  0  0
   -6.4840    3.9880  -17.0750 N   0  0  0  0  0  0  0  0  0  0  0  0
   -5.2270    3.5530  -16.8840 C   0  0  0  0  0  0  0  0  0  0  0  0
   -4.9070    2.2430  -16.6340 C   0  0  0  0  0  0  0  0  0  0  0  0
   -5.9640    1.3590  -16.5880 C   0  0  0  0  0  0  0  0  0  0  0  0
   -5.7970   -0.0820  -16.3310 C   0  0  0  0  0  0  0  0  0  0  0  0
   -4.6760   -0.8140  -16.7510 C   0  0  0  0  0  0  0  0  0  0  0  0
   -4.5750   -2.1790  -16.4810 C   0  0  0  0  0  0  0  0  0  0  0  0
   -5.6040   -2.7920  -15.7910 C   0  0  0  0  0  0  0  0  0  0  0  0
   -6.7000   -2.1400  -15.3600 N   0  0  0  0  0  0  0  0  0  0  0  0
   -6.7660   -0.8110  -15.6330 C   0  0  0  0  0  0  0  0  0  0  0  0
   -7.2360    1.7720  -16.7880 N   0  0  0  0  0  0  0  0  0  0  0  0
   -9.5289    6.9123  -17.4786 H   0  0  0  0  0  0  0  0  0  0  0  0
   -9.2771    5.4181  -18.4432 H   0  0  0  0  0  0  0  0  0  0  0  0
  -10.8806    6.2275  -18.4432 H   0  0  0  0  0  0  0  0  0  0  0  0
  -11.9023    6.6121  -16.0515 H   0  0  0  0  0  0  0  0  0  0  0  0
  -12.6832    5.3179  -14.0786 H   0  0  0  0  0  0  0  0  0  0  0  0
  -10.9300    2.4570  -12.8100 H   0  0  0  0  0  0  0  0  0  0  0  0
  -10.9979    1.1092  -11.9291 H   0  0  0  0  0  0  0  0  0  0  0  0
  -11.0787   -0.5198  -10.0490 H   0  0  0  0  0  0  0  0  0  0  0  0
  -14.2163   -1.0680   -7.9876 H   0  0  0  0  0  0  0  0  0  0  0  0
  -12.8651   -2.0332   -8.8146 H   0  0  0  0  0  0  0  0  0  0  0  0
  -10.9426   -2.1457   -6.3407 H   0  0  0  0  0  0  0  0  0  0  0  0
  -11.0710   -2.2499   -8.1666 H   0  0  0  0  0  0  0  0  0  0  0  0
   -8.8776   -1.3784   -7.3639 H   0  0  0  0  0  0  0  0  0  0  0  0
   -9.8372   -0.2360   -8.4345 H   0  0  0  0  0  0  0  0  0  0  0  0
   -9.1924    0.1966   -4.4087 H   0  0  0  0  0  0  0  0  0  0  0  0
   -8.4504   -1.0619   -5.4538 H   0  0  0  0  0  0  0  0  0  0  0  0
   -7.7908    0.6089   -5.4538 H   0  0  0  0  0  0  0  0  0  0  0  0
  -11.1508    0.1645   -5.0249 H   0  0  0  0  0  0  0  0  0  0  0  0
  -10.8744    1.8437   -5.6697 H   0  0  0  0  0  0  0  0  0  0  0  0
  -13.0091    0.9897   -6.5034 H   0  0  0  0  0  0  0  0  0  0  0  0
  -11.8126    1.1243   -7.8564 H   0  0  0  0  0  0  0  0  0  0  0  0
  -15.2036    0.5454   -9.3068 H   0  0  0  0  0  0  0  0  0  0  0  0
  -15.1254    2.1740  -11.1895 H   0  0  0  0  0  0  0  0  0  0  0  0
   -9.8344    2.2197  -15.0079 H   0  0  0  0  0  0  0  0  0  0  0  0
   -9.0360    3.2670  -18.1690 H   0  0  0  0  0  0  0  0  0  0  0  0
   -4.4099    4.2879  -16.9307 H   0  0  0  0  0  0  0  0  0  0  0  0
   -3.8680    1.9168  -16.4793 H   0  0  0  0  0  0  0  0  0  0  0  0
   -3.8685   -0.3063  -17.2988 H   0  0  0  0  0  0  0  0  0  0  0  0
   -3.6968   -2.7541  -16.8096 H   0  0  0  0  0  0  0  0  0  0  0  0
   -5.5230   -3.8692  -15.5832 H   0  0  0  0  0  0  0  0  0  0  0  0
   -7.6517   -0.2644  -15.2770 H   0  0  0  0  0  0  0  0  0  0  0  0
  1  2  1  0
  2  3  1  0
  3  4  2  0
  4  5  1  0
  5  6  1  0
  6  7  1  0
  7  8  2  0
  7  9  1  0
  9 10  1  0
 10 11  2  0
 11 12  1  0
 12 13  1  0
 13 14  1  0
 14 15  1  0
 15 16  1  0
 16 17  1  0
 17 18  1  0
 17 19  1  0
 19 20  1  0
 12 21  2  0
 21 22  1  0
  5 23  2  0
 23 24  1  0
 24 25  1  0
 25 26  1  0
 26 27  2  0
 27 28  1  0
 28 29  2  0
 29 30  1  0
 30 31  1  0
 31 32  1  0
 32 33  2  0
 33 34  1  0
 34 35  2  0
 35 36  1  0
 30 37  2  0
 24  2  2  0
 37 26  1  0
 22  9  2  0
 36 31  2  0
 20 14  1  0
  1 38  1  0
  1 39  1  0
  1 40  1  0
  3 41  1  0
  4 42  1  0
  6 43  1  0
 10 44  1  0
 11 45  1  0
 13 46  1  0
 13 47  1  0
 15 48  1  0
 15 49  1  0
 16 50  1  0
 16 51  1  0
 18 52  1  0
 18 53  1  0
 18 54  1  0
 19 55  1  0
 19 56  1  0
 20 57  1  0
 20 58  1  0
 21 59  1  0
 22 60  1  0
 23 61  1  0
 25 62  1  0
 28 63  1  0
 29 64  1  0
 32 65  1  0
 33 66  1  0
 34 67  1  0
 36 68  1  0
M  END
>  <meeko>  (5) 
{"is_sidechain": false}

>  <vina_affinity_kcal_mol>  (5) 
-9.526

>  <pose_rank>  (5) 
5

$$$$

     RDKit          3D

 68 72  0  0  0  0  0  0  0  0999 V2000
   -5.2790    2.5030  -16.5400 C   0  0  0  0  0  0  0  0  0  0  0  0
   -6.2720    1.9840  -15.5330 C   0  0  0  0  0  0  0  0  0  0  0  0
   -5.8220    1.0680  -14.5680 C   0  0  0  0  0  0  0  0  0  0  0  0
   -6.6890    0.5520  -13.6050 C   0  0  0  0  0  0  0  0  0  0  0  0
   -8.0220    0.9420  -13.5890 C   0  0  0  0  0  0  0  0  0  0  0  0
   -8.9680    0.4810  -12.6480 N   0  0  0  0  0  0  0  0  0  0  0  0
  -10.0680   -0.3240  -12.8840 C   0  0  0  0  0  0  0  0  0  0  0  0
  -10.4650   -0.7280  -13.9700 O   0  0  0  0  0  0  0  0  0  0  0  0
  -10.8510   -0.6840  -11.6670 C   0  0  0  0  0  0  0  0  0  0  0  0
  -11.4900    0.3380  -10.9590 C   0  0  0  0  0  0  0  0  0  0  0  0
  -12.2330    0.0430   -9.8140 C   0  0  0  0  0  0  0  0  0  0  0  0
  -12.3660   -1.2800   -9.3670 C   0  0  0  0  0  0  0  0  0  0  0  0
  -13.1750   -1.6030   -8.1260 C   0  0  0  0  0  0  0  0  0  0  0  0
  -14.5800   -1.1900   -8.1210 N   0  0  0  0  0  0  0  0  0  0  0  0
  -15.5560   -2.2440   -8.4320 C   0  0  0  0  0  0  0  0  0  0  0  0
  -16.4990   -2.6040   -7.2610 C   0  0  0  0  0  0  0  0  0  0  0  0
  -17.2300   -1.4570   -6.6810 N   0  0  0  0  0  0  0  0  0  0  0  0
  -18.5960   -1.3690   -7.1860 C   0  0  0  0  0  0  0  0  0  0  0  0
  -16.5100   -0.1850   -6.9060 C   0  0  0  0  0  0  0  0  0  0  0  0
  -14.9780   -0.3730   -6.9660 C   0  0  0  0  0  0  0  0  0  0  0  0
  -11.7260   -2.3000  -10.0890 C   0  0  0  0  0  0  0  0  0  0  0  0
  -10.9810   -2.0090  -11.2350 C   0  0  0  0  0  0  0  0  0  0  0  0
   -8.4730    1.8600  -14.5510 C   0  0  0  0  0  0  0  0  0  0  0  0
   -7.6250    2.3930  -15.5370 C   0  0  0  0  0  0  0  0  0  0  0  0
   -8.0730    3.3170  -16.4950 N   0  0  0  0  0  0  0  0  0  0  0  0
   -9.1250    4.2270  -16.5630 C   0  0  0  0  0  0  0  0  0  0  0  0
  -10.0920    4.2780  -15.6400 N   0  0  0  0  0  0  0  0  0  0  0  0
  -11.0530    5.2010  -15.8060 C   0  0  0  0  0  0  0  0  0  0  0  0
  -11.0850    6.0820  -16.8560 C   0  0  0  0  0  0  0  0  0  0  0  0
  -10.0550    5.9780  -17.7670 C   0  0  0  0  0  0  0  0  0  0  0  0
   -9.9370    6.8460  -18.9520 C   0  0  0  0  0  0  0  0  0  0  0  0
   -9.5800    8.2010  -18.8790 C   0  0  0  0  0  0  0  0  0  0  0  0
   -9.4880    8.9760  -20.0360 C   0  0  0  0  0  0  0  0  0  0  0  0
   -9.7550    8.3760  -21.2530 C   0  0  0  0  0  0  0  0  0  0  0  0
  -10.0950    7.0800  -21.3830 N   0  0  0  0  0  0  0  0  0  0  0  0
  -10.1720    6.3520  -20.2380 C   0  0  0  0  0  0  0  0  0  0  0  0
   -9.0830    5.0490  -17.6250 N   0  0  0  0  0  0  0  0  0  0  0  0
   -4.4229    2.9504  -16.0138 H   0  0  0  0  0  0  0  0  0  0  0  0
   -4.9285    1.6728  -17.1708 H   0  0  0  0  0  0  0  0  0  0  0  0
   -5.7605    3.2647  -17.1708 H   0  0  0  0  0  0  0  0  0  0  0  0
   -4.7683    0.7523  -14.5718 H   0  0  0  0  0  0  0  0  0  0  0  0
   -6.3169   -0.1643  -12.8577 H   0  0  0  0  0  0  0  0  0  0  0  0
   -8.8530    0.8420  -11.7090 H   0  0  0  0  0  0  0  0  0  0  0  0
  -11.4072    1.3788  -11.3052 H   0  0  0  0  0  0  0  0  0  0  0  0
  -12.7193    0.8570   -9.2565 H   0  0  0  0  0  0  0  0  0  0  0  0
  -13.1495   -2.6940   -7.9882 H   0  0  0  0  0  0  0  0  0  0  0  0
  -12.7041   -1.0220   -7.3193 H   0  0  0  0  0  0  0  0  0  0  0  0
  -16.1716   -1.9046   -9.2781 H   0  0  0  0  0  0  0  0  0  0  0  0
  -14.9775   -3.1512   -8.6607 H   0  0  0  0  0  0  0  0  0  0  0  0
  -17.2383   -3.3314   -7.6276 H   0  0  0  0  0  0  0  0  0  0  0  0
  -15.8602   -3.0027   -6.4591 H   0  0  0  0  0  0  0  0  0  0  0  0
  -19.2975   -1.3238   -6.3399 H   0  0  0  0  0  0  0  0  0  0  0  0
  -18.7024   -0.4621   -7.7994 H   0  0  0  0  0  0  0  0  0  0  0  0
  -18.8179   -2.2547   -7.7994 H   0  0  0  0  0  0  0  0  0  0  0  0
  -16.8495    0.2484   -7.8583 H   0  0  0  0  0  0  0  0  0  0  0  0
  -16.7316    0.4783   -6.0569 H   0  0  0  0  0  0  0  0  0  0  0  0
  -14.4996    0.6144   -7.0449 H   0  0  0  0  0  0  0  0  0  0  0  0
  -14.6580   -0.8914   -6.0501 H   0  0  0  0  0  0  0  0  0  0  0  0
  -11.8121   -3.3423   -9.7480 H   0  0  0  0  0  0  0  0  0  0  0  0
  -10.4969   -2.8210  -11.7974 H   0  0  0  0  0  0  0  0  0  0  0  0
   -9.5273    2.1731  -14.5323 H   0  0  0  0  0  0  0  0  0  0  0  0
   -7.5700    3.3520  -17.3680 H   0  0  0  0  0  0  0  0  0  0  0  0
  -11.8586    5.2531  -15.0588 H   0  0  0  0  0  0  0  0  0  0  0  0
  -11.8856    6.8283  -16.9654 H   0  0  0  0  0  0  0  0  0  0  0  0
   -9.3706    8.6570  -17.9001 H   0  0  0  0  0  0  0  0  0  0  0  0
   -9.2097   10.0388  -19.9812 H   0  0  0  0  0  0  0  0  0  0  0  0
   -9.6859    8.9902  -22.1629 H   0  0  0  0  0  0  0  0  0  0  0  0
  -10.4407    5.2894  -20.3308 H   0  0  0  0  0  0  0  0  0  0  0  0
  1  2  1  0
  2  3  1  0
  3  4  2  0
  4  5  1  0
  5  6  1  0
  6  7  1  0
  7  8  2  0
  7  9  1  0
  9 10  1  0
 10 11  2  0
 11 12  1  0
 12 13  1  0
 13 14  1  0
 14 15  1  0
 15 16  1  0
 16 17  1  0
 17 18  1  0
 17 19  1  0
 19 20  1  0
 12 21  2  0
 21 22  1  0
  5 23  2  0
 23 24  1  0
 24 25  1  0
 25 26  1  0
 26 27  2  0
 27 28  1  0
 28 29  2  0
 29 30  1  0
 30 31  1  0
 31 32  1  0
 32 33  2  0
 33 34  1  0
 34 35  2  0
 35 36  1  0
 30 37  2  0
 24  2  2  0
 37 26  1  0
 22  9  2  0
 36 31  2  0
 20 14  1  0
  1 38  1  0
  1 39  1  0
  1 40  1  0
  3 41  1  0
  4 42  1  0
  6 43  1  0
 10 44  1  0
 11 45  1  0
 13 46  1  0
 13 47  1  0
 15 48  1  0
 15 49  1  0
 16 50  1  0
 16 51  1  0
 18 52  1  0
 18 53  1  0
 18 54  1  0
 19 55  1  0
 19 56  1  0
 20 57  1  0
 20 58  1  0
 21 59  1  0
 22 60  1  0
 23 61  1  0
 25 62  1  0
 28 63  1  0
 29 64  1  0
 32 65  1  0
 33 66  1  0
 34 67  1  0
 36 68  1  0
M  END
>  <meeko>  (6) 
{"is_sidechain": false}

>  <vina_affinity_kcal_mol>  (6) 
-9.526

>  <pose_rank>  (6) 
6

$$$$

     RDKit          3D

 68 72  0  0  0  0  0  0  0  0999 V2000
   -4.8000    1.9090  -16.5980 C   0  0  0  0  0  0  0  0  0  0  0  0
   -5.8430    1.4550  -15.6100 C   0  0  0  0  0  0  0  0  0  0  0  0
   -5.5630    0.3280  -14.8190 C   0  0  0  0  0  0  0  0  0  0  0  0
   -6.4830   -0.1420  -13.8820 C   0  0  0  0  0  0  0  0  0  0  0  0
   -7.7010    0.5060  -13.7190 C   0  0  0  0  0  0  0  0  0  0  0  0
   -8.6880    0.1090  -12.7910 N   0  0  0  0  0  0  0  0  0  0  0  0
   -9.9690   -0.3380  -13.0630 C   0  0  0  0  0  0  0  0  0  0  0  0
  -10.5090   -0.4030  -14.1610 O   0  0  0  0  0  0  0  0  0  0  0  0
  -10.7600   -0.7350  -11.8630 C   0  0  0  0  0  0  0  0  0  0  0  0
  -11.4280    0.2620  -11.1450 C   0  0  0  0  0  0  0  0  0  0  0  0
  -12.1790   -0.0690  -10.0140 C   0  0  0  0  0  0  0  0  0  0  0  0
  -12.2910   -1.4020   -9.5930 C   0  0  0  0  0  0  0  0  0  0  0  0
  -13.1080   -1.7630   -8.3680 C   0  0  0  0  0  0  0  0  0  0  0  0
  -14.5060   -1.3260   -8.3470 N   0  0  0  0  0  0  0  0  0  0  0  0
  -15.5100   -2.3940   -8.4430 C   0  0  0  0  0  0  0  0  0  0  0  0
  -16.3890   -2.5570   -7.1820 C   0  0  0  0  0  0  0  0  0  0  0  0
  -17.0710   -1.3220   -6.7400 N   0  0  0  0  0  0  0  0  0  0  0  0
  -18.4630   -1.2820   -7.1770 C   0  0  0  0  0  0  0  0  0  0  0  0
  -16.3500   -0.1120   -7.1910 C   0  0  0  0  0  0  0  0  0  0  0  0
  -14.8260   -0.3380   -7.3070 C   0  0  0  0  0  0  0  0  0  0  0  0
  -11.6220   -2.3960  -10.3240 C   0  0  0  0  0  0  0  0  0  0  0  0
  -10.8680   -2.0700  -11.4560 C   0  0  0  0  0  0  0  0  0  0  0  0
   -7.9820    1.6330  -14.5070 C   0  0  0  0  0  0  0  0  0  0  0  0
   -7.0770    2.1270  -15.4630 C   0  0  0  0  0  0  0  0  0  0  0  0
   -7.3530    3.2600  -16.2450 N   0  0  0  0  0  0  0  0  0  0  0  0
   -8.4580    4.0900  -16.4140 C   0  0  0  0  0  0  0  0  0  0  0  0
   -8.4770    5.0900  -17.3030 N   0  0  0  0  0  0  0  0  0  0  0  0
   -9.6000    5.8220  -17.3820 C   0  0  0  0  0  0  0  0  0  0  0  0
  -10.7120    5.5910  -16.6120 C   0  0  0  0  0  0  0  0  0  0  0  0
  -10.6260    4.5420  -15.7220 C   0  0  0  0  0  0  0  0  0  0  0  0
  -11.7270    4.1580  -14.8220 C   0  0  0  0  0  0  0  0  0  0  0  0
  -11.5970    3.1850  -13.8180 C   0  0  0  0  0  0  0  0  0  0  0  0
  -12.6780    2.8600  -12.9980 C   0  0  0  0  0  0  0  0  0  0  0  0
  -13.8770    3.5190  -13.1970 C   0  0  0  0  0  0  0  0  0  0  0  0
  -14.0580    4.4620  -14.1400 N   0  0  0  0  0  0  0  0  0  0  0  0
  -12.9850    4.7590  -14.9190 C   0  0  0  0  0  0  0  0  0  0  0  0
   -9.5010    3.7990  -15.6180 N   0  0  0  0  0  0  0  0  0  0  0  0
   -3.9226    2.2909  -16.0554 H   0  0  0  0  0  0  0  0  0  0  0  0
   -4.4995    1.0603  -17.2299 H   0  0  0  0  0  0  0  0  0  0  0  0
   -5.2164    2.7073  -17.2299 H   0  0  0  0  0  0  0  0  0  0  0  0
   -4.6017   -0.1926  -14.9408 H   0  0  0  0  0  0  0  0  0  0  0  0
   -6.2442   -1.0257  -13.2721 H   0  0  0  0  0  0  0  0  0  0  0  0
   -8.4390    0.2320  -11.8180 H   0  0  0  0  0  0  0  0  0  0  0  0
  -11.3620    1.3103  -11.4716 H   0  0  0  0  0  0  0  0  0  0  0  0
  -12.6880    0.7248   -9.4476 H   0  0  0  0  0  0  0  0  0  0  0  0
  -13.1019   -2.8592   -8.2766 H   0  0  0  0  0  0  0  0  0  0  0  0
  -12.6286   -1.2249   -7.5369 H   0  0  0  0  0  0  0  0  0  0  0  0
  -16.1687   -2.1718   -9.2955 H   0  0  0  0  0  0  0  0  0  0  0  0
  -14.9561   -3.3366   -8.5645 H   0  0  0  0  0  0  0  0  0  0  0  0
  -17.1572   -3.3149   -7.3955 H   0  0  0  0  0  0  0  0  0  0  0  0
  -15.7105   -2.8461   -6.3658 H   0  0  0  0  0  0  0  0  0  0  0  0
  -19.1231   -1.2630   -6.2973 H   0  0  0  0  0  0  0  0  0  0  0  0
  -18.6317   -0.3786   -7.7815 H   0  0  0  0  0  0  0  0  0  0  0  0
  -18.6833   -2.1742   -7.7815 H   0  0  0  0  0  0  0  0  0  0  0  0
  -16.7386    0.1829   -8.1769 H   0  0  0  0  0  0  0  0  0  0  0  0
  -16.5143    0.6738   -6.4390 H   0  0  0  0  0  0  0  0  0  0  0  0
  -14.3412    0.6166   -7.5595 H   0  0  0  0  0  0  0  0  0  0  0  0
  -14.4593   -0.7203   -6.3430 H   0  0  0  0  0  0  0  0  0  0  0  0
  -11.6916   -3.4456  -10.0023 H   0  0  0  0  0  0  0  0  0  0  0  0
  -10.3603   -2.8620  -12.0260 H   0  0  0  0  0  0  0  0  0  0  0  0
   -8.9445    2.1481  -14.3718 H   0  0  0  0  0  0  0  0  0  0  0  0
   -6.6280    3.5720  -16.8720 H   0  0  0  0  0  0  0  0  0  0  0  0
   -9.6301    6.6520  -18.1033 H   0  0  0  0  0  0  0  0  0  0  0  0
  -11.6191    6.2070  -16.6999 H   0  0  0  0  0  0  0  0  0  0  0  0
  -10.6333    2.6739  -13.6766 H   0  0  0  0  0  0  0  0  0  0  0  0
  -12.5787    2.0973  -12.2116 H   0  0  0  0  0  0  0  0  0  0  0  0
  -14.7280    3.2588  -12.5504 H   0  0  0  0  0  0  0  0  0  0  0  0
  -13.1171    5.5347  -15.6876 H   0  0  0  0  0  0  0  0  0  0  0  0
  1  2  1  0
  2  3  1  0
  3  4  2  0
  4  5  1  0
  5  6  1  0
  6  7  1  0
  7  8  2  0
  7  9  1  0
  9 10  1  0
 10 11  2  0
 11 12  1  0
 12 13  1  0
 13 14  1  0
 14 15  1  0
 15 16  1  0
 16 17  1  0
 17 18  1  0
 17 19  1  0
 19 20  1  0
 12 21  2  0
 21 22  1  0
  5 23  2  0
 23 24  1  0
 24 25  1  0
 25 26  1  0
 26 27  2  0
 27 28  1  0
 28 29  2  0
 29 30  1  0
 30 31  1  0
 31 32  1  0
 32 33  2  0
 33 34  1  0
 34 35  2  0
 35 36  1  0
 30 37  2  0
 24  2  2  0
 37 26  1  0
 22  9  2  0
 36 31  2  0
 20 14  1  0
  1 38  1  0
  1 39  1  0
  1 40  1  0
  3 41  1  0
  4 42  1  0
  6 43  1  0
 10 44  1  0
 11 45  1  0
 13 46  1  0
 13 47  1  0
 15 48  1  0
 15 49  1  0
 16 50  1  0
 16 51  1  0
 18 52  1  0
 18 53  1  0
 18 54  1  0
 19 55  1  0
 19 56  1  0
 20 57  1  0
 20 58  1  0
 21 59  1  0
 22 60  1  0
 23 61  1  0
 25 62  1  0
 28 63  1  0
 29 64  1  0
 32 65  1  0
 33 66  1  0
 34 67  1  0
 36 68  1  0
M  END
>  <meeko>  (7) 
{"is_sidechain": false}

>  <vina_affinity_kcal_mol>  (7) 
-9.506

>  <pose_rank>  (7) 
7

$$$$

     RDKit          3D

 68 72  0  0  0  0  0  0  0  0999 V2000
   -8.4780    4.5530  -18.1630 C   0  0  0  0  0  0  0  0  0  0  0  0
   -9.1450    3.9910  -16.9350 C   0  0  0  0  0  0  0  0  0  0  0  0
  -10.0060    4.8270  -16.2050 C   0  0  0  0  0  0  0  0  0  0  0  0
  -10.6590    4.3670  -15.0610 C   0  0  0  0  0  0  0  0  0  0  0  0
  -10.4620    3.0620  -14.6260 C   0  0  0  0  0  0  0  0  0  0  0  0
  -11.0870    2.5080  -13.4880 N   0  0  0  0  0  0  0  0  0  0  0  0
  -12.4430    2.4380  -13.2210 C   0  0  0  0  0  0  0  0  0  0  0  0
  -13.3510    2.9110  -13.8930 O   0  0  0  0  0  0  0  0  0  0  0  0
  -12.7940    1.7410  -11.9500 C   0  0  0  0  0  0  0  0  0  0  0  0
  -14.1050    1.8420  -11.4750 C   0  0  0  0  0  0  0  0  0  0  0  0
  -14.4740    1.2050  -10.2880 C   0  0  0  0  0  0  0  0  0  0  0  0
  -13.5450    0.4410   -9.5660 C   0  0  0  0  0  0  0  0  0  0  0  0
  -13.9460   -0.2540   -8.2790 C   0  0  0  0  0  0  0  0  0  0  0  0
  -13.8910   -1.7180   -8.2680 N   0  0  0  0  0  0  0  0  0  0  0  0
  -14.3920   -2.3840   -9.4780 C   0  0  0  0  0  0  0  0  0  0  0  0
  -13.3150   -3.1580  -10.2720 C   0  0  0  0  0  0  0  0  0  0  0  0
  -12.5580   -4.1510   -9.4790 N   0  0  0  0  0  0  0  0  0  0  0  0
  -13.0610   -5.5060   -9.6790 C   0  0  0  0  0  0  0  0  0  0  0  0
  -12.5510   -3.8060   -8.0410 C   0  0  0  0  0  0  0  0  0  0  0  0
  -12.6200   -2.2820   -7.7950 C   0  0  0  0  0  0  0  0  0  0  0  0
  -12.2330    0.3400  -10.0550 C   0  0  0  0  0  0  0  0  0  0  0  0
  -11.8590    0.9770  -11.2420 C   0  0  0  0  0  0  0  0  0  0  0  0
   -9.6040    2.2250  -15.3560 C   0  0  0  0  0  0  0  0  0  0  0  0
   -8.9290    2.6610  -16.5090 C   0  0  0  0  0  0  0  0  0  0  0  0
   -8.0770    1.8210  -17.2440 N   0  0  0  0  0  0  0  0  0  0  0  0
   -7.1210    0.8650  -16.9170 C   0  0  0  0  0  0  0  0  0  0  0  0
   -7.3670   -0.1350  -16.0610 N   0  0  0  0  0  0  0  0  0  0  0  0
   -6.3690   -1.0020  -15.8250 C   0  0  0  0  0  0  0  0  0  0  0  0
   -5.1340   -0.9170  -16.4160 C   0  0  0  0  0  0  0  0  0  0  0  0
   -4.9510    0.1330  -17.2900 C   0  0  0  0  0  0  0  0  0  0  0  0
   -3.6870    0.3700  -18.0100 C   0  0  0  0  0  0  0  0  0  0  0  0
   -3.3420   -0.2940  -19.1970 C   0  0  0  0  0  0  0  0  0  0  0  0
   -2.1280   -0.0290  -19.8320 C   0  0  0  0  0  0  0  0  0  0  0  0
   -1.2760    0.9000  -19.2640 C   0  0  0  0  0  0  0  0  0  0  0  0
   -1.5570    1.5700  -18.1310 N   0  0  0  0  0  0  0  0  0  0  0  0
   -2.7490    1.2940  -17.5400 C   0  0  0  0  0  0  0  0  0  0  0  0
   -5.9380    1.0250  -17.5340 N   0  0  0  0  0  0  0  0  0  0  0  0
   -7.6690    5.2346  -17.8614 H   0  0  0  0  0  0  0  0  0  0  0  0
   -8.0602    3.7306  -18.7622 H   0  0  0  0  0  0  0  0  0  0  0  0
   -9.2176    5.1042  -18.7622 H   0  0  0  0  0  0  0  0  0  0  0  0
  -10.1682    5.8618  -16.5409 H   0  0  0  0  0  0  0  0  0  0  0  0
  -11.3297    5.0373  -14.5035 H   0  0  0  0  0  0  0  0  0  0  0  0
  -10.4570    2.1880  -12.7640 H   0  0  0  0  0  0  0  0  0  0  0  0
  -14.8485    2.4252  -12.0381 H   0  0  0  0  0  0  0  0  0  0  0  0
  -15.5042    1.3035   -9.9153 H   0  0  0  0  0  0  0  0  0  0  0  0
  -13.2781    0.1090   -7.4839 H   0  0  0  0  0  0  0  0  0  0  0  0
  -15.0090   -0.0073   -8.1407 H   0  0  0  0  0  0  0  0  0  0  0  0
  -15.1769   -3.0946   -9.1798 H   0  0  0  0  0  0  0  0  0  0  0  0
  -14.7630   -1.5902  -10.1430 H   0  0  0  0  0  0  0  0  0  0  0  0
  -13.8123   -3.6866  -11.0986 H   0  0  0  0  0  0  0  0  0  0  0  0
  -12.5839   -2.4108  -10.6143 H   0  0  0  0  0  0  0  0  0  0  0  0
  -13.2369   -5.9798   -8.7020 H   0  0  0  0  0  0  0  0  0  0  0  0
  -14.0047   -5.4673  -10.2429 H   0  0  0  0  0  0  0  0  0  0  0  0
  -12.3207   -6.0924  -10.2429 H   0  0  0  0  0  0  0  0  0  0  0  0
  -13.4197   -4.2800   -7.5608 H   0  0  0  0  0  0  0  0  0  0  0  0
  -11.6038   -4.1695   -7.6159 H   0  0  0  0  0  0  0  0  0  0  0  0
  -12.5226   -2.0892   -6.7164 H   0  0  0  0  0  0  0  0  0  0  0  0
  -11.8012   -1.8046   -8.3533 H   0  0  0  0  0  0  0  0  0  0  0  0
  -11.4895   -0.2480   -9.4970 H   0  0  0  0  0  0  0  0  0  0  0  0
  -10.8305    0.8778  -11.6193 H   0  0  0  0  0  0  0  0  0  0  0  0
   -9.4544    1.1905  -15.0134 H   0  0  0  0  0  0  0  0  0  0  0  0
   -8.1010    1.9110  -18.2480 H   0  0  0  0  0  0  0  0  0  0  0  0
   -6.5519   -1.8255  -15.1190 H   0  0  0  0  0  0  0  0  0  0  0  0
   -4.3363   -1.6443  -16.2048 H   0  0  0  0  0  0  0  0  0  0  0  0
   -4.0348   -1.0301  -19.6309 H   0  0  0  0  0  0  0  0  0  0  0  0
   -1.8551   -0.5473  -20.7631 H   0  0  0  0  0  0  0  0  0  0  0  0
   -0.3176    1.1023  -19.7646 H   0  0  0  0  0  0  0  0  0  0  0  0
   -2.9956    1.8412  -16.6182 H   0  0  0  0  0  0  0  0  0  0  0  0
  1  2  1  0
  2  3  1  0
  3  4  2  0
  4  5  1  0
  5  6  1  0
  6  7  1  0
  7  8  2  0
  7  9  1  0
  9 10  1  0
 10 11  2  0
 11 12  1  0
 12 13  1  0
 13 14  1  0
 14 15  1  0
 15 16  1  0
 16 17  1  0
 17 18  1  0
 17 19  1  0
 19 20  1  0
 12 21  2  0
 21 22  1  0
  5 23  2  0
 23 24  1  0
 24 25  1  0
 25 26  1  0
 26 27  2  0
 27 28  1  0
 28 29  2  0
 29 30  1  0
 30 31  1  0
 31 32  1  0
 32 33  2  0
 33 34  1  0
 34 35  2  0
 35 36  1  0
 30 37  2  0
 24  2  2  0
 37 26  1  0
 22  9  2  0
 36 31  2  0
 20 14  1  0
  1 38  1  0
  1 39  1  0
  1 40  1  0
  3 41  1  0
  4 42  1  0
  6 43  1  0
 10 44  1  0
 11 45  1  0
 13 46  1  0
 13 47  1  0
 15 48  1  0
 15 49  1  0
 16 50  1  0
 16 51  1  0
 18 52  1  0
 18 53  1  0
 18 54  1  0
 19 55  1  0
 19 56  1  0
 20 57  1  0
 20 58  1  0
 21 59  1  0
 22 60  1  0
 23 61  1  0
 25 62  1  0
 28 63  1  0
 29 64  1  0
 32 65  1  0
 33 66  1  0
 34 67  1  0
 36 68  1  0
M  END
>  <meeko>  (8) 
{"is_sidechain": false}

>  <vina_affinity_kcal_mol>  (8) 
-9.424

>  <pose_rank>  (8) 
8

$$$$

     RDKit          3D

 68 72  0  0  0  0  0  0  0  0999 V2000
   -9.7850    6.1060  -17.6640 C   0  0  0  0  0  0  0  0  0  0  0  0
  -10.2470    5.2350  -16.5250 C   0  0  0  0  0  0  0  0  0  0  0  0
  -11.3950    5.6250  -15.8140 C   0  0  0  0  0  0  0  0  0  0  0  0
  -11.8790    4.8620  -14.7520 C   0  0  0  0  0  0  0  0  0  0  0  0
  -11.2240    3.6940  -14.3800 C   0  0  0  0  0  0  0  0  0  0  0  0
  -11.6460    2.8550  -13.3270 N   0  0  0  0  0  0  0  0  0  0  0  0
  -12.9130    2.7630  -12.7780 C   0  0  0  0  0  0  0  0  0  0  0  0
  -13.8880    3.4480  -13.0600 O   0  0  0  0  0  0  0  0  0  0  0  0
  -13.0560    1.7370  -11.7050 C   0  0  0  0  0  0  0  0  0  0  0  0
  -11.9440    0.9560  -11.3770 C   0  0  0  0  0  0  0  0  0  0  0  0
  -12.0370   -0.0160  -10.3780 C   0  0  0  0  0  0  0  0  0  0  0  0
  -13.2380   -0.2110   -9.6770 C   0  0  0  0  0  0  0  0  0  0  0  0
  -13.3390   -1.2640   -8.5910 C   0  0  0  0  0  0  0  0  0  0  0  0
  -12.6720   -0.9750   -7.3200 N   0  0  0  0  0  0  0  0  0  0  0  0
  -11.2880   -1.4540   -7.2020 C   0  0  0  0  0  0  0  0  0  0  0  0
  -10.2320   -0.3300   -7.0810 C   0  0  0  0  0  0  0  0  0  0  0  0
  -10.4800    0.6350   -5.9880 N   0  0  0  0  0  0  0  0  0  0  0  0
   -9.6720    0.3420   -4.8090 C   0  0  0  0  0  0  0  0  0  0  0  0
  -11.9140    0.6960   -5.6330 C   0  0  0  0  0  0  0  0  0  0  0  0
  -12.8370    0.4030   -6.8370 C   0  0  0  0  0  0  0  0  0  0  0  0
  -14.3460    0.5830  -10.0100 C   0  0  0  0  0  0  0  0  0  0  0  0
  -14.2580    1.5570  -11.0100 C   0  0  0  0  0  0  0  0  0  0  0  0
  -10.0790    3.3020  -15.0910 C   0  0  0  0  0  0  0  0  0  0  0  0
   -9.5640    4.0530  -16.1620 C   0  0  0  0  0  0  0  0  0  0  0  0
   -8.4240    3.6560  -16.8780 N   0  0  0  0  0  0  0  0  0  0  0  0
   -7.6600    2.4940  -16.9420 C   0  0  0  0  0  0  0  0  0  0  0  0
   -6.9120    2.1830  -18.0070 N   0  0  0  0  0  0  0  0  0  0  0  0
   -6.2120    1.0380  -17.9540 C   0  0  0  0  0  0  0  0  0  0  0  0
   -6.2230    0.1920  -16.8750 C   0  0  0  0  0  0  0  0  0  0  0  0
   -7.0100    0.5760  -15.8100 C   0  0  0  0  0  0  0  0  0  0  0  0
   -7.1340   -0.2150  -14.5740 C   0  0  0  0  0  0  0  0  0  0  0  0
   -6.1530   -1.1190  -14.1370 C   0  0  0  0  0  0  0  0  0  0  0  0
   -6.3290   -1.8450  -12.9580 C   0  0  0  0  0  0  0  0  0  0  0  0
   -7.4890   -1.6500  -12.2320 C   0  0  0  0  0  0  0  0  0  0  0  0
   -8.4600   -0.7940  -12.6000 N   0  0  0  0  0  0  0  0  0  0  0  0
   -8.2570   -0.0990  -13.7490 C   0  0  0  0  0  0  0  0  0  0  0  0
   -7.7320    1.7200  -15.8460 N   0  0  0  0  0  0  0  0  0  0  0  0
   -9.3051    7.0107  -17.2625 H   0  0  0  0  0  0  0  0  0  0  0  0
   -9.0628    5.5508  -18.2806 H   0  0  0  0  0  0  0  0  0  0  0  0
  -10.6497    6.3925  -18.2806 H   0  0  0  0  0  0  0  0  0  0  0  0
  -11.9206    6.5479  -16.1002 H   0  0  0  0  0  0  0  0  0  0  0  0
  -12.7793    5.1846  -14.2086 H   0  0  0  0  0  0  0  0  0  0  0  0
  -10.9130    2.3110  -12.8890 H   0  0  0  0  0  0  0  0  0  0  0  0
  -10.9923    1.1074  -11.9075 H   0  0  0  0  0  0  0  0  0  0  0  0
  -11.1601   -0.6352  -10.1379 H   0  0  0  0  0  0  0  0  0  0  0  0
  -14.4069   -1.4190   -8.3775 H   0  0  0  0  0  0  0  0  0  0  0  0
  -12.8144   -2.1422   -8.9954 H   0  0  0  0  0  0  0  0  0  0  0  0
  -11.2187   -2.0892   -6.3066 H   0  0  0  0  0  0  0  0  0  0  0  0
  -11.0632   -1.9978   -8.1314 H   0  0  0  0  0  0  0  0  0  0  0  0
   -9.2515   -0.7980   -6.9092 H   0  0  0  0  0  0  0  0  0  0  0  0
  -10.2792    0.2433   -8.0186 H   0  0  0  0  0  0  0  0  0  0  0  0
  -10.2568    0.5541   -3.9018 H   0  0  0  0  0  0  0  0  0  0  0  0
   -9.3812   -0.7188   -4.8182 H   0  0  0  0  0  0  0  0  0  0  0  0
   -8.7688    0.9699   -4.8182 H   0  0  0  0  0  0  0  0  0  0  0  0
  -12.1142   -0.0467   -4.8466 H   0  0  0  0  0  0  0  0  0  0  0  0
  -12.1290    1.7186   -5.2894 H   0  0  0  0  0  0  0  0  0  0  0  0
  -13.8828    0.5512   -6.5299 H   0  0  0  0  0  0  0  0  0  0  0  0
  -12.5673    1.0892   -7.6533 H   0  0  0  0  0  0  0  0  0  0  0  0
  -15.2972    0.4374   -9.4771 H   0  0  0  0  0  0  0  0  0  0  0  0
  -15.1318    2.1806  -11.2500 H   0  0  0  0  0  0  0  0  0  0  0  0
   -9.5661    2.3735  -14.7996 H   0  0  0  0  0  0  0  0  0  0  0  0
   -8.0000    4.3450  -17.4810 H   0  0  0  0  0  0  0  0  0  0  0  0
   -5.5964    0.7640  -18.8235 H   0  0  0  0  0  0  0  0  0  0  0  0
   -5.6378   -0.7393  -16.8599 H   0  0  0  0  0  0  0  0  0  0  0  0
   -5.2365   -1.2566  -14.7296 H   0  0  0  0  0  0  0  0  0  0  0  0
   -5.5627   -2.5556  -12.6147 H   0  0  0  0  0  0  0  0  0  0  0  0
   -7.6257   -2.2250  -11.3043 H   0  0  0  0  0  0  0  0  0  0  0  0
   -9.0385    0.6120  -14.0551 H   0  0  0  0  0  0  0  0  0  0  0  0
  1  2  1  0
  2  3  1  0
  3  4  2  0
  4  5  1  0
  5  6  1  0
  6  7  1  0
  7  8  2  0
  7  9  1  0
  9 10  1  0
 10 11  2  0
 11 12  1  0
 12 13  1  0
 13 14  1  0
 14 15  1  0
 15 16  1  0
 16 17  1  0
 17 18  1  0
 17 19  1  0
 19 20  1  0
 12 21  2  0
 21 22  1  0
  5 23  2  0
 23 24  1  0
 24 25  1  0
 25 26  1  0
 26 27  2  0
 27 28  1  0
 28 29  2  0
 29 30  1  0
 30 31  1  0
 31 32  1  0
 32 33  2  0
 33 34  1  0
 34 35  2  0
 35 36  1  0
 30 37  2  0
 24  2  2  0
 37 26  1  0
 22  9  2  0
 36 31  2  0
 20 14  1  0
  1 38  1  0
  1 39  1  0
  1 40  1  0
  3 41  1  0
  4 42  1  0
  6 43  1  0
 10 44  1  0
 11 45  1  0
 13 46  1  0
 13 47  1  0
 15 48  1  0
 15 49  1  0
 16 50  1  0
 16 51  1  0
 18 52  1  0
 18 53  1  0
 18 54  1  0
 19 55  1  0
 19 56  1  0
 20 57  1  0
 20 58  1  0
 21 59  1  0
 22 60  1  0
 23 61  1  0
 25 62  1  0
 28 63  1  0
 29 64  1  0
 32 65  1  0
 33 66  1  0
 34 67  1  0
 36 68  1  0
M  END
>  <meeko>  (9) 
{"is_sidechain": false}

>  <vina_affinity_kcal_mol>  (9) 
-9.394

>  <pose_rank>  (9) 
9

$$$$

     RDKit          3D

 68 72  0  0  0  0  0  0  0  0999 V2000
   -9.9460    7.1480  -17.3860 C   0  0  0  0  0  0  0  0  0  0  0  0
   -9.3010    5.8060  -17.1560 C   0  0  0  0  0  0  0  0  0  0  0  0
   -8.1160    5.5120  -17.8500 C   0  0  0  0  0  0  0  0  0  0  0  0
   -7.4650    4.2900  -17.6800 C   0  0  0  0  0  0  0  0  0  0  0  0
   -7.9890    3.3390  -16.8120 C   0  0  0  0  0  0  0  0  0  0  0  0
   -7.3960    2.0810  -16.5690 N   0  0  0  0  0  0  0  0  0  0  0  0
   -6.8900    1.1940  -17.5030 C   0  0  0  0  0  0  0  0  0  0  0  0
   -6.9280    1.3070  -18.7220 O   0  0  0  0  0  0  0  0  0  0  0  0
   -6.2760   -0.0360  -16.9260 C   0  0  0  0  0  0  0  0  0  0  0  0
   -5.0340   -0.4540  -17.4150 C   0  0  0  0  0  0  0  0  0  0  0  0
   -4.4260   -1.6020  -16.9020 C   0  0  0  0  0  0  0  0  0  0  0  0
   -5.0400   -2.3420  -15.8790 C   0  0  0  0  0  0  0  0  0  0  0  0
   -4.3790   -3.5870  -15.3190 C   0  0  0  0  0  0  0  0  0  0  0  0
   -4.8330   -4.0480  -14.0060 N   0  0  0  0  0  0  0  0  0  0  0  0
   -5.5740   -5.3170  -13.9960 C   0  0  0  0  0  0  0  0  0  0  0  0
   -4.8580   -6.4680  -13.2530 C   0  0  0  0  0  0  0  0  0  0  0  0
   -4.4640   -6.1540  -11.8620 N   0  0  0  0  0  0  0  0  0  0  0  0
   -5.4110   -6.6950  -10.8920 C   0  0  0  0  0  0  0  0  0  0  0  0
   -4.2900   -4.7000  -11.6620 C   0  0  0  0  0  0  0  0  0  0  0  0
   -3.8200   -3.9760  -12.9440 C   0  0  0  0  0  0  0  0  0  0  0  0
   -6.2830   -1.9110  -15.3910 C   0  0  0  0  0  0  0  0  0  0  0  0
   -6.8960   -0.7620  -15.9020 C   0  0  0  0  0  0  0  0  0  0  0  0
   -9.1730    3.6330  -16.1170 C   0  0  0  0  0  0  0  0  0  0  0  0
   -9.8530    4.8530  -16.2710 C   0  0  0  0  0  0  0  0  0  0  0  0
  -11.0320    5.1510  -15.5690 N   0  0  0  0  0  0  0  0  0  0  0  0
  -11.9030    4.4250  -14.7630 C   0  0  0  0  0  0  0  0  0  0  0  0
  -13.1560    4.8260  -14.5140 N   0  0  0  0  0  0  0  0  0  0  0  0
  -13.9080    4.0410  -13.7260 C   0  0  0  0  0  0  0  0  0  0  0  0
  -13.4630    2.8640  -13.1810 C   0  0  0  0  0  0  0  0  0  0  0  0
  -12.1660    2.5080  -13.4830 C   0  0  0  0  0  0  0  0  0  0  0  0
  -11.5310    1.2770  -12.9810 C   0  0  0  0  0  0  0  0  0  0  0  0
  -11.6310    0.8490  -11.6480 C   0  0  0  0  0  0  0  0  0  0  0  0
  -11.0040   -0.3260  -11.2290 C   0  0  0  0  0  0  0  0  0  0  0  0
  -10.2860   -1.0560  -12.1580 C   0  0  0  0  0  0  0  0  0  0  0  0
  -10.1610   -0.6970  -13.4490 N   0  0  0  0  0  0  0  0  0  0  0  0
  -10.7870    0.4490  -13.8260 C   0  0  0  0  0  0  0  0  0  0  0  0
  -11.3860    3.2890  -14.2650 N   0  0  0  0  0  0  0  0  0  0  0  0
  -10.1716    7.6173  -16.4170 H   0  0  0  0  0  0  0  0  0  0  0  0
   -9.2592    7.7923  -17.9544 H   0  0  0  0  0  0  0  0  0  0  0  0
  -10.8782    7.0142  -17.9544 H   0  0  0  0  0  0  0  0  0  0  0  0
   -7.6940    6.2581  -18.5394 H   0  0  0  0  0  0  0  0  0  0  0  0
   -6.5375    4.0790  -18.2325 H   0  0  0  0  0  0  0  0  0  0  0  0
   -7.4090    1.7780  -15.6040 H   0  0  0  0  0  0  0  0  0  0  0  0
   -4.5342    0.1236  -18.2066 H   0  0  0  0  0  0  0  0  0  0  0  0
   -3.4559   -1.9298  -17.3037 H   0  0  0  0  0  0  0  0  0  0  0  0
   -4.5506   -4.4042  -16.0350 H   0  0  0  0  0  0  0  0  0  0  0  0
   -3.3243   -3.3098  -15.1750 H   0  0  0  0  0  0  0  0  0  0  0  0
   -6.5452   -5.1446  -13.5091 H   0  0  0  0  0  0  0  0  0  0  0  0
   -5.6708   -5.6326  -15.0453 H   0  0  0  0  0  0  0  0  0  0  0  0
   -5.5349   -7.3348  -13.2302 H   0  0  0  0  0  0  0  0  0  0  0  0
   -3.9260   -6.6618  -13.8041 H   0  0  0  0  0  0  0  0  0  0  0  0
   -5.0504   -6.4890   -9.8734 H   0  0  0  0  0  0  0  0  0  0  0  0
   -6.3936   -6.2220  -11.0358 H   0  0  0  0  0  0  0  0  0  0  0  0
   -5.5026   -7.7817  -11.0358 H   0  0  0  0  0  0  0  0  0  0  0  0
   -5.2523   -4.2700  -11.3472 H   0  0  0  0  0  0  0  0  0  0  0  0
   -3.5130   -4.5596  -10.8961 H   0  0  0  0  0  0  0  0  0  0  0  0
   -3.6254   -2.9196  -12.7068 H   0  0  0  0  0  0  0  0  0  0  0  0
   -2.9065   -4.4714  -13.3046 H   0  0  0  0  0  0  0  0  0  0  0  0
   -6.7822   -2.4843  -14.5959 H   0  0  0  0  0  0  0  0  0  0  0  0
   -7.8642   -0.4293  -15.4996 H   0  0  0  0  0  0  0  0  0  0  0  0
   -9.5832    2.8810  -15.4269 H   0  0  0  0  0  0  0  0  0  0  0  0
  -11.3930    6.0880  -15.6580 H   0  0  0  0  0  0  0  0  0  0  0  0
  -14.9375    4.3595  -13.5055 H   0  0  0  0  0  0  0  0  0  0  0  0
  -14.1036    2.2403  -12.5402 H   0  0  0  0  0  0  0  0  0  0  0  0
  -12.2090    1.4451  -10.9264 H   0  0  0  0  0  0  0  0  0  0  0  0
  -11.0795   -0.6629  -10.1846 H   0  0  0  0  0  0  0  0  0  0  0  0
   -9.7905   -1.9795  -11.8241 H   0  0  0  0  0  0  0  0  0  0  0  0
  -10.7011    0.7488  -14.8809 H   0  0  0  0  0  0  0  0  0  0  0  0
  1  2  1  0
  2  3  1  0
  3  4  2  0
  4  5  1  0
  5  6  1  0
  6  7  1  0
  7  8  2  0
  7  9  1  0
  9 10  1  0
 10 11  2  0
 11 12  1  0
 12 13  1  0
 13 14  1  0
 14 15  1  0
 15 16  1  0
 16 17  1  0
 17 18  1  0
 17 19  1  0
 19 20  1  0
 12 21  2  0
 21 22  1  0
  5 23  2  0
 23 24  1  0
 24 25  1  0
 25 26  1  0
 26 27  2  0
 27 28  1  0
 28 29  2  0
 29 30  1  0
 30 31  1  0
 31 32  1  0
 32 33  2  0
 33 34  1  0
 34 35  2  0
 35 36  1  0
 30 37  2  0
 24  2  2  0
 37 26  1  0
 22  9  2  0
 36 31  2  0
 20 14  1  0
  1 38  1  0
  1 39  1  0
  1 40  1  0
  3 41  1  0
  4 42  1  0
  6 43  1  0
 10 44  1  0
 11 45  1  0
 13 46  1  0
 13 47  1  0
 15 48  1  0
 15 49  1  0
 16 50  1  0
 16 51  1  0
 18 52  1  0
 18 53  1  0
 18 54  1  0
 19 55  1  0
 19 56  1  0
 20 57  1  0
 20 58  1  0
 21 59  1  0
 22 60  1  0
 23 61  1  0
 25 62  1  0
 28 63  1  0
 29 64  1  0
 32 65  1  0
 33 66  1  0
 34 67  1  0
 36 68  1  0
M  END
>  <meeko>  (10) 
{"is_sidechain": false}

>  <vina_affinity_kcal_mol>  (10) 
-9.334

>  <pose_rank>  (10) 
10

$$$$
