
     RDKit          3D

 46 49  0  0  0  0  0  0  0  0999 V2000
  -16.5190   -0.5890   -6.5700 C   0  0  0  0  0  0  0  0  0  0  0  0
  -15.0830   -0.5010   -6.5100 N   0  0  0  0  0  0  0  0  0  0  0  0
  -14.4000    0.4850   -7.1860 C   0  0  0  0  0  0  0  0  0  0  0  0
  -14.9430    1.4100   -7.7810 O   0  0  0  0  0  0  0  0  0  0  0  0
  -12.9170    0.4080   -7.1430 C   0  0  0  0  0  0  0  0  0  0  0  0
  -12.2960    1.0880   -6.0820 C   0  0  0  0  0  0  0  0  0  0  0  0
  -10.9090    1.0750   -5.9470 C   0  0  0  0  0  0  0  0  0  0  0  0
  -10.1320    0.3900   -6.8760 C   0  0  0  0  0  0  0  0  0  0  0  0
  -10.7390   -0.2710   -7.9460 C   0  0  0  0  0  0  0  0  0  0  0  0
  -12.1360   -0.2630   -8.1010 C   0  0  0  0  0  0  0  0  0  0  0  0
  -12.8010   -1.0900   -9.5450 S   0  0  0  0  0  0  0  0  0  0  0  0
  -12.5700    0.1870  -10.7770 C   0  0  0  0  0  0  0  0  0  0  0  0
  -11.3500    0.2650  -11.4560 C   0  0  0  0  0  0  0  0  0  0  0  0
  -11.1260    1.2500  -12.4290 C   0  0  0  0  0  0  0  0  0  0  0  0
  -12.1520    2.1710  -12.7220 C   0  0  0  0  0  0  0  0  0  0  0  0
  -12.3270    3.2830  -13.6030 C   0  0  0  0  0  0  0  0  0  0  0  0
  -11.3320    3.7650  -14.5160 C   0  0  0  0  0  0  0  0  0  0  0  0
  -11.4570    4.8710  -15.2710 C   0  0  0  0  0  0  0  0  0  0  0  0
  -10.4290    5.3520  -16.2010 C   0  0  0  0  0  0  0  0  0  0  0  0
  -10.3970    6.6950  -16.5680 C   0  0  0  0  0  0  0  0  0  0  0  0
   -9.4120    7.1290  -17.4520 C   0  0  0  0  0  0  0  0  0  0  0  0
   -8.4880    6.2150  -17.9440 C   0  0  0  0  0  0  0  0  0  0  0  0
   -8.5910    4.8990  -17.5280 C   0  0  0  0  0  0  0  0  0  0  0  0
   -9.5350    4.4500  -16.6720 N   0  0  0  0  0  0  0  0  0  0  0  0
  -13.5490    3.8230  -13.4690 N   0  0  0  0  0  0  0  0  0  0  0  0
  -14.1370    3.0750  -12.5230 N   0  0  0  0  0  0  0  0  0  0  0  0
  -13.3550    2.0640  -12.0370 C   0  0  0  0  0  0  0  0  0  0  0  0
  -13.6060    1.0850  -11.0680 C   0  0  0  0  0  0  0  0  0  0  0  0
  -16.9278   -0.6141   -5.5491 H   0  0  0  0  0  0  0  0  0  0  0  0
  -16.9180    0.2864   -7.1034 H   0  0  0  0  0  0  0  0  0  0  0  0
  -16.8082   -1.5066   -7.1034 H   0  0  0  0  0  0  0  0  0  0  0  0
  -14.5650   -1.3080   -6.1820 H   0  0  0  0  0  0  0  0  0  0  0  0
  -12.9098    1.6354   -5.3515 H   0  0  0  0  0  0  0  0  0  0  0  0
  -10.4306    1.6040   -5.1096 H   0  0  0  0  0  0  0  0  0  0  0  0
   -9.0376    0.3691   -6.7674 H   0  0  0  0  0  0  0  0  0  0  0  0
  -10.1152   -0.8053   -8.6777 H   0  0  0  0  0  0  0  0  0  0  0  0
  -10.5537   -0.4573  -11.2234 H   0  0  0  0  0  0  0  0  0  0  0  0
  -10.1622    1.3031  -12.9566 H   0  0  0  0  0  0  0  0  0  0  0  0
  -10.3993    3.1887  -14.6054 H   0  0  0  0  0  0  0  0  0  0  0  0
  -12.3878    5.4510  -15.1860 H   0  0  0  0  0  0  0  0  0  0  0  0
  -11.1379    7.4018  -16.1661 H   0  0  0  0  0  0  0  0  0  0  0  0
   -9.3659    8.1847  -17.7576 H   0  0  0  0  0  0  0  0  0  0  0  0
   -7.6985    6.5281  -18.6431 H   0  0  0  0  0  0  0  0  0  0  0  0
   -7.8603    4.1750  -17.9178 H   0  0  0  0  0  0  0  0  0  0  0  0
  -15.0850    3.3070  -12.2480 H   0  0  0  0  0  0  0  0  0  0  0  0
  -14.5774    1.0231  -10.5556 H   0  0  0  0  0  0  0  0  0  0  0  0
  1  2  1  0
  2  3  1  0
  3  4  2  0
  3  5  1  0
  5  6  2  0
  6  7  1  0
  7  8  2  0
  8  9  1  0
  9 10  2  0
 10 11  1  0
 11 12  1  0
 12 13  2  0
 13 14  1  0
 14 15  2  0
 15 16  1  0
 16 17  1  0
 17 18  2  0
 18 19  1  0
 19 20  2  0
 20 21  1  0
 21 22  2  0
 22 23  1  0
 23 24  2  0
 16 25  2  0
 25 26  1  0
 26 27  1  0
 27 28  2  0
 10  5  1  0
 28 12  1  0
 27 15  1  0
 24 19  1  0
  1 29  1  0
  1 30  1  0
  1 31  1  0
  2 32  1  0
  6 33  1  0
  7 34  1  0
  8 35  1  0
  9 36  1  0
 13 37  1  0
 14 38  1  0
 17 39  1  0
 18 40  1  0
 20 41  1  0
 21 42  1  0
 22 43  1  0
 23 44  1  0
 26 45  1  0
 28 46  1  0
M  END
>  <meeko>  (1) 
{"is_sidechain": false}

>  <vina_affinity_kcal_mol>  (1) 
-8.694

>  <pose_rank>  (1) 
1

$$$$

     RDKit          3D

 46 49  0  0  0  0  0  0  0  0999 V2000
   -9.1940    0.0210   -7.0230 C   0  0  0  0  0  0  0  0  0  0  0  0
  -10.0170   -0.6930   -7.9650 N   0  0  0  0  0  0  0  0  0  0  0  0
  -11.0570   -1.4900   -7.5430 C   0  0  0  0  0  0  0  0  0  0  0  0
  -11.4330   -1.5660   -6.3790 O   0  0  0  0  0  0  0  0  0  0  0  0
  -11.7620   -2.2650   -8.5970 C   0  0  0  0  0  0  0  0  0  0  0  0
  -11.1620   -3.4770   -8.9750 C   0  0  0  0  0  0  0  0  0  0  0  0
  -11.7450   -4.2830   -9.9520 C   0  0  0  0  0  0  0  0  0  0  0  0
  -12.9280   -3.8780  -10.5630 C   0  0  0  0  0  0  0  0  0  0  0  0
  -13.5210   -2.6650  -10.2070 C   0  0  0  0  0  0  0  0  0  0  0  0
  -12.9430   -1.8380   -9.2300 C   0  0  0  0  0  0  0  0  0  0  0  0
  -13.7550   -0.2740   -8.8990 S   0  0  0  0  0  0  0  0  0  0  0  0
  -13.2040    0.6740  -10.3130 C   0  0  0  0  0  0  0  0  0  0  0  0
  -11.8920    0.5150  -10.7710 C   0  0  0  0  0  0  0  0  0  0  0  0
  -11.4190    1.2380  -11.8750 C   0  0  0  0  0  0  0  0  0  0  0  0
  -12.2860    2.1360  -12.5310 C   0  0  0  0  0  0  0  0  0  0  0  0
  -12.2060    3.0290  -13.6430 C   0  0  0  0  0  0  0  0  0  0  0  0
  -11.0370    3.2250  -14.4490 C   0  0  0  0  0  0  0  0  0  0  0  0
  -10.8870    4.2070  -15.3560 C   0  0  0  0  0  0  0  0  0  0  0  0
   -9.6830    4.3960  -16.1730 C   0  0  0  0  0  0  0  0  0  0  0  0
   -9.5020    5.5810  -16.8810 C   0  0  0  0  0  0  0  0  0  0  0  0
   -8.3520    5.7380  -17.6510 C   0  0  0  0  0  0  0  0  0  0  0  0
   -7.4160    4.7120  -17.6930 C   0  0  0  0  0  0  0  0  0  0  0  0
   -7.6740    3.5660  -16.9580 C   0  0  0  0  0  0  0  0  0  0  0  0
   -8.7800    3.3870  -16.2040 N   0  0  0  0  0  0  0  0  0  0  0  0
  -13.3710    3.6650  -13.8420 N   0  0  0  0  0  0  0  0  0  0  0  0
  -14.1740    3.1910  -12.8770 N   0  0  0  0  0  0  0  0  0  0  0  0
  -13.5860    2.2660  -12.0590 C   0  0  0  0  0  0  0  0  0  0  0  0
  -14.0840    1.5500  -10.9640 C   0  0  0  0  0  0  0  0  0  0  0  0
   -9.4968   -0.2417   -5.9987 H   0  0  0  0  0  0  0  0  0  0  0  0
   -8.1397   -0.2534   -7.1755 H   0  0  0  0  0  0  0  0  0  0  0  0
   -9.3169    1.1034   -7.1755 H   0  0  0  0  0  0  0  0  0  0  0  0
   -9.6730   -0.8090   -8.9110 H   0  0  0  0  0  0  0  0  0  0  0  0
  -10.2236   -3.7934   -8.4960 H   0  0  0  0  0  0  0  0  0  0  0  0
  -11.2723   -5.2341  -10.2384 H   0  0  0  0  0  0  0  0  0  0  0  0
  -13.3968   -4.5147  -11.3278 H   0  0  0  0  0  0  0  0  0  0  0  0
  -14.4541   -2.3527  -10.6987 H   0  0  0  0  0  0  0  0  0  0  0  0
  -11.2207   -0.1885  -10.2568 H   0  0  0  0  0  0  0  0  0  0  0  0
  -10.3845    1.1065  -12.2251 H   0  0  0  0  0  0  0  0  0  0  0  0
  -10.2020    2.5213  -14.3162 H   0  0  0  0  0  0  0  0  0  0  0  0
  -11.7194    4.9128  -15.4939 H   0  0  0  0  0  0  0  0  0  0  0  0
  -10.2555    6.3809  -16.8330 H   0  0  0  0  0  0  0  0  0  0  0  0
   -8.1865    6.6647  -18.2200 H   0  0  0  0  0  0  0  0  0  0  0  0
   -6.4980    4.8066  -18.2916 H   0  0  0  0  0  0  0  0  0  0  0  0
   -6.9335    2.7533  -16.9906 H   0  0  0  0  0  0  0  0  0  0  0  0
  -15.1240    3.5420  -12.8260 H   0  0  0  0  0  0  0  0  0  0  0  0
  -15.1244    1.6699  -10.6277 H   0  0  0  0  0  0  0  0  0  0  0  0
  1  2  1  0
  2  3  1  0
  3  4  2  0
  3  5  1  0
  5  6  2  0
  6  7  1  0
  7  8  2  0
  8  9  1  0
  9 10  2  0
 10 11  1  0
 11 12  1  0
 12 13  2  0
 13 14  1  0
 14 15  2  0
 15 16  1  0
 16 17  1  0
 17 18  2  0
 18 19  1  0
 19 20  2  0
 20 21  1  0
 21 22  2  0
 22 23  1  0
 23 24  2  0
 16 25  2  0
 25 26  1  0
 26 27  1  0
 27 28  2  0
 10  5  1  0
 28 12  1  0
 27 15  1  0
 24 19  1  0
  1 29  1  0
  1 30  1  0
  1 31  1  0
  2 32  1  0
  6 33  1  0
  7 34  1  0
  8 35  1  0
  9 36  1  0
 13 37  1  0
 14 38  1  0
 17 39  1  0
 18 40  1  0
 20 41  1  0
 21 42  1  0
 22 43  1  0
 23 44  1  0
 26 45  1  0
 28 46  1  0
M  END
>  <meeko>  (2) 
{"is_sidechain": false}

>  <vina_affinity_kcal_mol>  (2) 
-8.642

>  <pose_rank>  (2) 
2

$$$$

     RDKit          3D

 46 49  0  0  0  0  0  0  0  0999 V2000
  -12.3740   -5.0740   -9.8170 C   0  0  0  0  0  0  0  0  0  0  0  0
  -12.0530   -3.8820   -9.0740 N   0  0  0  0  0  0  0  0  0  0  0  0
  -11.2050   -2.9280   -9.5890 C   0  0  0  0  0  0  0  0  0  0  0  0
  -10.7590   -2.9520  -10.7310 O   0  0  0  0  0  0  0  0  0  0  0  0
  -10.8590   -1.7980   -8.6870 C   0  0  0  0  0  0  0  0  0  0  0  0
   -9.6330   -1.9050   -8.0100 C   0  0  0  0  0  0  0  0  0  0  0  0
   -9.2120   -0.8970   -7.1440 C   0  0  0  0  0  0  0  0  0  0  0  0
  -10.0170    0.2200   -6.9420 C   0  0  0  0  0  0  0  0  0  0  0  0
  -11.2460    0.3240   -7.5960 C   0  0  0  0  0  0  0  0  0  0  0  0
  -11.6890   -0.6850   -8.4670 C   0  0  0  0  0  0  0  0  0  0  0  0
  -13.3120   -0.4760   -9.2010 S   0  0  0  0  0  0  0  0  0  0  0  0
  -12.9010    0.5900  -10.5780 C   0  0  0  0  0  0  0  0  0  0  0  0
  -11.6340    0.4920  -11.1620 C   0  0  0  0  0  0  0  0  0  0  0  0
  -11.2710    1.3080  -12.2430 C   0  0  0  0  0  0  0  0  0  0  0  0
  -12.2040    2.2370  -12.7460 C   0  0  0  0  0  0  0  0  0  0  0  0
  -12.2360    3.2160  -13.7870 C   0  0  0  0  0  0  0  0  0  0  0  0
  -11.1460    3.4960  -14.6750 C   0  0  0  0  0  0  0  0  0  0  0  0
  -11.0470    4.5960  -15.4440 C   0  0  0  0  0  0  0  0  0  0  0  0
   -9.9250    4.8700  -16.3480 C   0  0  0  0  0  0  0  0  0  0  0  0
   -9.8190    6.1110  -16.9690 C   0  0  0  0  0  0  0  0  0  0  0  0
   -8.7450    6.3480  -17.8240 C   0  0  0  0  0  0  0  0  0  0  0  0
   -7.8090    5.3440  -18.0350 C   0  0  0  0  0  0  0  0  0  0  0  0
   -7.9890    4.1380  -17.3780 C   0  0  0  0  0  0  0  0  0  0  0  0
   -9.0200    3.8800  -16.5440 N   0  0  0  0  0  0  0  0  0  0  0  0
  -13.4210    3.8430  -13.8300 N   0  0  0  0  0  0  0  0  0  0  0  0
  -14.1280    3.2800  -12.8380 N   0  0  0  0  0  0  0  0  0  0  0  0
  -13.4580    2.3060  -12.1520 C   0  0  0  0  0  0  0  0  0  0  0  0
  -13.8460    1.4980  -11.0770 C   0  0  0  0  0  0  0  0  0  0  0  0
  -12.5948   -5.8938   -9.1175 H   0  0  0  0  0  0  0  0  0  0  0  0
  -13.2534   -4.8856  -10.4504 H   0  0  0  0  0  0  0  0  0  0  0  0
  -11.5189   -5.3527  -10.4504 H   0  0  0  0  0  0  0  0  0  0  0  0
  -12.2460   -3.8690   -8.0790 H   0  0  0  0  0  0  0  0  0  0  0  0
   -9.0000   -2.7913   -8.1644 H   0  0  0  0  0  0  0  0  0  0  0  0
   -8.2474   -0.9842   -6.6225 H   0  0  0  0  0  0  0  0  0  0  0  0
   -9.6846    1.0218   -6.2663 H   0  0  0  0  0  0  0  0  0  0  0  0
  -11.8767    1.2092   -7.4267 H   0  0  0  0  0  0  0  0  0  0  0  0
  -10.9108   -0.2367  -10.7671 H   0  0  0  0  0  0  0  0  0  0  0  0
  -10.2707    1.2242  -12.6928 H   0  0  0  0  0  0  0  0  0  0  0  0
  -10.3318    2.7586  -14.7319 H   0  0  0  0  0  0  0  0  0  0  0  0
  -11.8588    5.3364  -15.3912 H   0  0  0  0  0  0  0  0  0  0  0  0
  -10.5715    6.8925  -16.7875 H   0  0  0  0  0  0  0  0  0  0  0  0
   -8.6394    7.3206  -18.3269 H   0  0  0  0  0  0  0  0  0  0  0  0
   -6.9502    5.5018  -18.7040 H   0  0  0  0  0  0  0  0  0  0  0  0
   -7.2479    3.3425  -17.5454 H   0  0  0  0  0  0  0  0  0  0  0  0
  -15.0730    3.6080  -12.6750 H   0  0  0  0  0  0  0  0  0  0  0  0
  -14.8530    1.5723  -10.6406 H   0  0  0  0  0  0  0  0  0  0  0  0
  1  2  1  0
  2  3  1  0
  3  4  2  0
  3  5  1  0
  5  6  2  0
  6  7  1  0
  7  8  2  0
  8  9  1  0
  9 10  2  0
 10 11  1  0
 11 12  1  0
 12 13  2  0
 13 14  1  0
 14 15  2  0
 15 16  1  0
 16 17  1  0
 17 18  2  0
 18 19  1  0
 19 20  2  0
 20 21  1  0
 21 22  2  0
 22 23  1  0
 23 24  2  0
 16 25  2  0
 25 26  1  0
 26 27  1  0
 27 28  2  0
 10  5  1  0
 28 12  1  0
 27 15  1  0
 24 19  1  0
  1 29  1  0
  1 30  1  0
  1 31  1  0
  2 32  1  0
  6 33  1  0
  7 34  1  0
  8 35  1  0
  9 36  1  0
 13 37  1  0
 14 38  1  0
 17 39  1  0
 18 40  1  0
 20 41  1  0
 21 42  1  0
 22 43  1  0
 23 44  1  0
 26 45  1  0
 28 46  1  0
M  END
>  <meeko>  (3) 
{"is_sidechain": false}

>  <vina_affinity_kcal_mol>  (3) 
-8.567

>  <pose_rank>  (3) 
3

$$$$

     RDKit          3D

 46 49  0  0  0  0  0  0  0  0999 V2000
  -17.1590   -2.0840   -7.7210 C   0  0  0  0  0  0  0  0  0  0  0  0
  -16.1060   -2.3350   -8.6720 N   0  0  0  0  0  0  0  0  0  0  0  0
  -14.9120   -2.8970   -8.2810 C   0  0  0  0  0  0  0  0  0  0  0  0
  -14.6930   -3.3260   -7.1530 O   0  0  0  0  0  0  0  0  0  0  0  0
  -13.8600   -3.0050   -9.3260 C   0  0  0  0  0  0  0  0  0  0  0  0
  -13.7080   -4.2690   -9.9180 C   0  0  0  0  0  0  0  0  0  0  0  0
  -12.7530   -4.4750  -10.9130 C   0  0  0  0  0  0  0  0  0  0  0  0
  -11.9380   -3.4220  -11.3150 C   0  0  0  0  0  0  0  0  0  0  0  0
  -12.0680   -2.1670  -10.7170 C   0  0  0  0  0  0  0  0  0  0  0  0
  -13.0210   -1.9430   -9.7090 C   0  0  0  0  0  0  0  0  0  0  0  0
  -13.0570   -0.3110   -8.9670 S   0  0  0  0  0  0  0  0  0  0  0  0
  -12.7480    0.7000  -10.4110 C   0  0  0  0  0  0  0  0  0  0  0  0
  -11.4660    0.7180  -10.9690 C   0  0  0  0  0  0  0  0  0  0  0  0
  -11.1810    1.4960  -12.1010 C   0  0  0  0  0  0  0  0  0  0  0  0
  -12.2090    2.2670  -12.6800 C   0  0  0  0  0  0  0  0  0  0  0  0
  -12.3350    3.1610  -13.7880 C   0  0  0  0  0  0  0  0  0  0  0  0
  -11.2690    3.5110  -14.6800 C   0  0  0  0  0  0  0  0  0  0  0  0
  -11.2120    4.6460  -15.3990 C   0  0  0  0  0  0  0  0  0  0  0  0
  -10.1130    4.9910  -16.3070 C   0  0  0  0  0  0  0  0  0  0  0  0
   -9.9950    6.2900  -16.7940 C   0  0  0  0  0  0  0  0  0  0  0  0
   -8.9430    6.5950  -17.6560 C   0  0  0  0  0  0  0  0  0  0  0  0
   -8.0410    5.5980  -18.0060 C   0  0  0  0  0  0  0  0  0  0  0  0
   -8.2310    4.3330  -17.4770 C   0  0  0  0  0  0  0  0  0  0  0  0
   -9.2410    4.0090  -16.6400 N   0  0  0  0  0  0  0  0  0  0  0  0
  -13.5870    3.6340  -13.8920 N   0  0  0  0  0  0  0  0  0  0  0  0
  -14.2420    3.0580  -12.8720 N   0  0  0  0  0  0  0  0  0  0  0  0
  -13.4740    2.2220  -12.1100 C   0  0  0  0  0  0  0  0  0  0  0  0
  -13.7850    1.4480  -10.9850 C   0  0  0  0  0  0  0  0  0  0  0  0
  -16.7611   -2.1788   -6.6999 H   0  0  0  0  0  0  0  0  0  0  0  0
  -17.5516   -1.0671   -7.8686 H   0  0  0  0  0  0  0  0  0  0  0  0
  -17.9681   -2.8144   -7.8686 H   0  0  0  0  0  0  0  0  0  0  0  0
  -16.1480   -1.8670   -9.5700 H   0  0  0  0  0  0  0  0  0  0  0  0
  -14.3474   -5.1035   -9.5943 H   0  0  0  0  0  0  0  0  0  0  0  0
  -12.6447   -5.4660  -11.3780 H   0  0  0  0  0  0  0  0  0  0  0  0
  -11.1894   -3.5783  -12.1057 H   0  0  0  0  0  0  0  0  0  0  0  0
  -11.4154   -1.3423  -11.0394 H   0  0  0  0  0  0  0  0  0  0  0  0
  -10.6686    0.1127  -10.5132 H   0  0  0  0  0  0  0  0  0  0  0  0
  -10.1686    1.5042  -12.5311 H   0  0  0  0  0  0  0  0  0  0  0  0
  -10.4368    2.7992  -14.7840 H   0  0  0  0  0  0  0  0  0  0  0  0
  -12.0421    5.3609  -15.2999 H   0  0  0  0  0  0  0  0  0  0  0  0
  -10.7208    7.0636  -16.5030 H   0  0  0  0  0  0  0  0  0  0  0  0
   -8.8282    7.6138  -18.0547 H   0  0  0  0  0  0  0  0  0  0  0  0
   -7.2003    5.8077  -18.6837 H   0  0  0  0  0  0  0  0  0  0  0  0
   -7.5167    3.5440  -17.7548 H   0  0  0  0  0  0  0  0  0  0  0  0
  -15.2240    3.2780  -12.7460 H   0  0  0  0  0  0  0  0  0  0  0  0
  -14.8029    1.4279  -10.5684 H   0  0  0  0  0  0  0  0  0  0  0  0
  1  2  1  0
  2  3  1  0
  3  4  2  0
  3  5  1  0
  5  6  2  0
  6  7  1  0
  7  8  2  0
  8  9  1  0
  9 10  2  0
 10 11  1  0
 11 12  1  0
 12 13  2  0
 13 14  1  0
 14 15  2  0
 15 16  1  0
 16 17  1  0
 17 18  2  0
 18 19  1  0
 19 20  2  0
 20 21  1  0
 21 22  2  0
 22 23  1  0
 23 24  2  0
 16 25  2  0
 25 26  1  0
 26 27  1  0
 27 28  2  0
 10  5  1  0
 28 12  1  0
 27 15  1  0
 24 19  1  0
  1 29  1  0
  1 30  1  0
  1 31  1  0
  2 32  1  0
  6 33  1  0
  7 34  1  0
  8 35  1  0
  9 36  1  0
 13 37  1  0
 14 38  1  0
 17 39  1  0
 18 40  1  0
 20 41  1  0
 21 42  1  0
 22 43  1  0
 23 44  1  0
 26 45  1  0
 28 46  1  0
M  END
>  <meeko>  (4) 
{"is_sidechain": false}

>  <vina_affinity_kcal_mol>  (4) 
-8.538

>  <pose_rank>  (4) 
4

$$$$

     RDKit          3D

 46 49  0  0  0  0  0  0  0  0999 V2000
  -10.1410    7.4890  -20.5790 C   0  0  0  0  0  0  0  0  0  0  0  0
  -10.3100    6.5720  -19.4800 N   0  0  0  0  0  0  0  0  0  0  0  0
   -9.8450    6.8760  -18.2200 C   0  0  0  0  0  0  0  0  0  0  0  0
   -9.3690    7.9620  -17.9090 O   0  0  0  0  0  0  0  0  0  0  0  0
   -9.9750    5.8080  -17.1950 C   0  0  0  0  0  0  0  0  0  0  0  0
  -11.1280    5.8600  -16.3950 C   0  0  0  0  0  0  0  0  0  0  0  0
  -11.3490    4.9030  -15.4060 C   0  0  0  0  0  0  0  0  0  0  0  0
  -10.4140    3.8920  -15.2040 C   0  0  0  0  0  0  0  0  0  0  0  0
   -9.2550    3.8440  -15.9820 C   0  0  0  0  0  0  0  0  0  0  0  0
   -9.0130    4.8050  -16.9780 C   0  0  0  0  0  0  0  0  0  0  0  0
   -7.4630    4.6830  -17.8700 S   0  0  0  0  0  0  0  0  0  0  0  0
   -6.8660    3.1120  -17.2550 C   0  0  0  0  0  0  0  0  0  0  0  0
   -7.0400    1.9650  -18.0350 C   0  0  0  0  0  0  0  0  0  0  0  0
   -6.5860    0.7140  -17.5910 C   0  0  0  0  0  0  0  0  0  0  0  0
   -5.9450    0.6210  -16.3390 C   0  0  0  0  0  0  0  0  0  0  0  0
   -5.3610   -0.4160  -15.5490 C   0  0  0  0  0  0  0  0  0  0  0  0
   -5.3000   -1.7970  -15.9300 C   0  0  0  0  0  0  0  0  0  0  0  0
   -5.3470   -2.8320  -15.0730 C   0  0  0  0  0  0  0  0  0  0  0  0
   -5.2840   -4.2410  -15.4790 C   0  0  0  0  0  0  0  0  0  0  0  0
   -4.1120   -4.7550  -16.0260 C   0  0  0  0  0  0  0  0  0  0  0  0
   -4.0760   -6.0950  -16.4050 C   0  0  0  0  0  0  0  0  0  0  0  0
   -5.2060   -6.8830  -16.2270 C   0  0  0  0  0  0  0  0  0  0  0  0
   -6.3300   -6.2920  -15.6750 C   0  0  0  0  0  0  0  0  0  0  0  0
   -6.3940   -4.9960  -15.2980 N   0  0  0  0  0  0  0  0  0  0  0  0
   -4.8720    0.0670  -14.3960 N   0  0  0  0  0  0  0  0  0  0  0  0
   -5.1410    1.3810  -14.4490 N   0  0  0  0  0  0  0  0  0  0  0  0
   -5.7790    1.7790  -15.5910 C   0  0  0  0  0  0  0  0  0  0  0  0
   -6.2150    3.0390  -16.0160 C   0  0  0  0  0  0  0  0  0  0  0  0
   -9.9547    8.5000  -20.1876 H   0  0  0  0  0  0  0  0  0  0  0  0
   -9.2864    7.1707  -21.1941 H   0  0  0  0  0  0  0  0  0  0  0  0
  -11.0529    7.4962  -21.1941 H   0  0  0  0  0  0  0  0  0  0  0  0
  -10.5400    5.6080  -19.6900 H   0  0  0  0  0  0  0  0  0  0  0  0
  -11.8634    6.6632  -16.5503 H   0  0  0  0  0  0  0  0  0  0  0  0
  -12.2580    4.9466  -14.7881 H   0  0  0  0  0  0  0  0  0  0  0  0
  -10.5881    3.1296  -14.4304 H   0  0  0  0  0  0  0  0  0  0  0  0
   -8.5211    3.0423  -15.8125 H   0  0  0  0  0  0  0  0  0  0  0  0
   -7.5403    2.0445  -19.0114 H   0  0  0  0  0  0  0  0  0  0  0  0
   -6.7284   -0.1828  -18.2119 H   0  0  0  0  0  0  0  0  0  0  0  0
   -5.2080   -2.0265  -17.0019 H   0  0  0  0  0  0  0  0  0  0  0  0
   -5.4384   -2.6086  -13.9998 H   0  0  0  0  0  0  0  0  0  0  0  0
   -3.2282   -4.1133  -16.1570 H   0  0  0  0  0  0  0  0  0  0  0  0
   -3.1620   -6.5247  -16.8408 H   0  0  0  0  0  0  0  0  0  0  0  0
   -5.2079   -7.9444  -16.5158 H   0  0  0  0  0  0  0  0  0  0  0  0
   -7.2253   -6.9155  -15.5349 H   0  0  0  0  0  0  0  0  0  0  0  0
   -4.8620    1.9610  -13.6660 H   0  0  0  0  0  0  0  0  0  0  0  0
   -6.0531    3.9370  -15.4017 H   0  0  0  0  0  0  0  0  0  0  0  0
  1  2  1  0
  2  3  1  0
  3  4  2  0
  3  5  1  0
  5  6  2  0
  6  7  1  0
  7  8  2  0
  8  9  1  0
  9 10  2  0
 10 11  1  0
 11 12  1  0
 12 13  2  0
 13 14  1  0
 14 15  2  0
 15 16  1  0
 16 17  1  0
 17 18  2  0
 18 19  1  0
 19 20  2  0
 20 21  1  0
 21 22  2  0
 22 23  1  0
 23 24  2  0
 16 25  2  0
 25 26  1  0
 26 27  1  0
 27 28  2  0
 10  5  1  0
 28 12  1  0
 27 15  1  0
 24 19  1  0
  1 29  1  0
  1 30  1  0
  1 31  1  0
  2 32  1  0
  6 33  1  0
  7 34  1  0
  8 35  1  0
  9 36  1  0
 13 37  1  0
 14 38  1  0
 17 39  1  0
 18 40  1  0
 20 41  1  0
 21 42  1  0
 22 43  1  0
 23 44  1  0
 26 45  1  0
 28 46  1  0
M  END
>  <meeko>  (5) 
{"is_sidechain": false}

>  <vina_affinity_kcal_mol>  (5) 
-8.344

>  <pose_rank>  (5) 
5

$$$$

     RDKit          3D

 46 49  0  0  0  0  0  0  0  0999 V2000
  -11.1680    1.0630   -6.0970 C   0  0  0  0  0  0  0  0  0  0  0  0
  -11.6540    0.1180   -7.0690 N   0  0  0  0  0  0  0  0  0  0  0  0
  -12.7090   -0.7190   -6.7850 C   0  0  0  0  0  0  0  0  0  0  0  0
  -13.3780   -0.6540   -5.7590 O   0  0  0  0  0  0  0  0  0  0  0  0
  -13.0480   -1.7280   -7.8220 C   0  0  0  0  0  0  0  0  0  0  0  0
  -12.4200   -2.9770   -7.6940 C   0  0  0  0  0  0  0  0  0  0  0  0
  -12.6730   -3.9950   -8.6120 C   0  0  0  0  0  0  0  0  0  0  0  0
  -13.5490   -3.7680   -9.6690 C   0  0  0  0  0  0  0  0  0  0  0  0
  -14.1620   -2.5220   -9.8150 C   0  0  0  0  0  0  0  0  0  0  0  0
  -13.9140   -1.4830   -8.9030 C   0  0  0  0  0  0  0  0  0  0  0  0
  -14.7050    0.0930   -9.2260 S   0  0  0  0  0  0  0  0  0  0  0  0
  -13.5970    0.7570  -10.4640 C   0  0  0  0  0  0  0  0  0  0  0  0
  -14.0050    1.8570  -11.2240 C   0  0  0  0  0  0  0  0  0  0  0  0
  -13.1670    2.4090  -12.2040 C   0  0  0  0  0  0  0  0  0  0  0  0
  -11.8950    1.8410  -12.4190 C   0  0  0  0  0  0  0  0  0  0  0  0
  -10.7820    2.0860  -13.2820 C   0  0  0  0  0  0  0  0  0  0  0  0
  -10.7270    3.1290  -14.2640 C   0  0  0  0  0  0  0  0  0  0  0  0
   -9.7090    3.3180  -15.1240 C   0  0  0  0  0  0  0  0  0  0  0  0
   -9.6670    4.3900  -16.1260 C   0  0  0  0  0  0  0  0  0  0  0  0
  -10.6920    5.3300  -16.1820 C   0  0  0  0  0  0  0  0  0  0  0  0
  -10.6310    6.3380  -17.1420 C   0  0  0  0  0  0  0  0  0  0  0  0
   -9.5520    6.3800  -18.0150 C   0  0  0  0  0  0  0  0  0  0  0  0
   -8.5750    5.4060  -17.8910 C   0  0  0  0  0  0  0  0  0  0  0  0
   -8.6090    4.4180  -16.9710 N   0  0  0  0  0  0  0  0  0  0  0  0
   -9.7890    1.2130  -13.0550 N   0  0  0  0  0  0  0  0  0  0  0  0
  -10.2580    0.4280  -12.0730 N   0  0  0  0  0  0  0  0  0  0  0  0
  -11.5140    0.7550  -11.6420 C   0  0  0  0  0  0  0  0  0  0  0  0
  -12.3280    0.1910  -10.6530 C   0  0  0  0  0  0  0  0  0  0  0  0
  -11.3644    0.6811   -5.0843 H   0  0  0  0  0  0  0  0  0  0  0  0
  -10.0855    1.2041   -6.2321 H   0  0  0  0  0  0  0  0  0  0  0  0
  -11.6829    2.0256   -6.2321 H   0  0  0  0  0  0  0  0  0  0  0  0
  -11.0610   -0.1050   -7.8600 H   0  0  0  0  0  0  0  0  0  0  0  0
  -11.7223   -3.1538   -6.8622 H   0  0  0  0  0  0  0  0  0  0  0  0
  -12.1824   -4.9733   -8.5013 H   0  0  0  0  0  0  0  0  0  0  0  0
  -13.7589   -4.5713  -10.3906 H   0  0  0  0  0  0  0  0  0  0  0  0
  -14.8493   -2.3516  -10.6567 H   0  0  0  0  0  0  0  0  0  0  0  0
  -14.9984    2.2964  -11.0508 H   0  0  0  0  0  0  0  0  0  0  0  0
  -13.4982    3.2741  -12.7972 H   0  0  0  0  0  0  0  0  0  0  0  0
  -11.5775    3.8245  -14.3185 H   0  0  0  0  0  0  0  0  0  0  0  0
   -8.8554    2.6261  -15.0728 H   0  0  0  0  0  0  0  0  0  0  0  0
  -11.5368    5.2779  -15.4795 H   0  0  0  0  0  0  0  0  0  0  0  0
  -11.4289    7.0923  -17.2076 H   0  0  0  0  0  0  0  0  0  0  0  0
   -9.4753    7.1640  -18.7828 H   0  0  0  0  0  0  0  0  0  0  0  0
   -7.7206    5.4392  -18.5831 H   0  0  0  0  0  0  0  0  0  0  0  0
   -9.6670   -0.3240  -11.7350 H   0  0  0  0  0  0  0  0  0  0  0  0
  -11.9861   -0.6619  -10.0483 H   0  0  0  0  0  0  0  0  0  0  0  0
  1  2  1  0
  2  3  1  0
  3  4  2  0
  3  5  1  0
  5  6  2  0
  6  7  1  0
  7  8  2  0
  8  9  1  0
  9 10  2  0
 10 11  1  0
 11 12  1  0
 12 13  2  0
 13 14  1  0
 14 15  2  0
 15 16  1  0
 16 17  1  0
 17 18  2  0
 18 19  1  0
 19 20  2  0
 20 21  1  0
 21 22  2  0
 22 23  1  0
 23 24  2  0
 16 25  2  0
 25 26  1  0
 26 27  1  0
 27 28  2  0
 10  5  1  0
 28 12  1  0
 27 15  1  0
 24 19  1  0
  1 29  1  0
  1 30  1  0
  1 31  1  0
  2 32  1  0
  6 33  1  0
  7 34  1  0
  8 35  1  0
  9 36  1  0
 13 37  1  0
 14 38  1  0
 17 39  1  0
 18 40  1  0
 20 41  1  0
 21 42  1  0
 22 43  1  0
 23 44  1  0
 26 45  1  0
 28 46  1  0
M  END
>  <meeko>  (6) 
{"is_sidechain": false}

>  <vina_affinity_kcal_mol>  (6) 
-8.064

>  <pose_rank>  (6) 
6

$$$$

     RDKit          3D

 46 49  0  0  0  0  0  0  0  0999 V2000
   -9.2930    9.0080  -19.1660 C   0  0  0  0  0  0  0  0  0  0  0  0
   -9.2470    7.6100  -18.8210 N   0  0  0  0  0  0  0  0  0  0  0  0
   -9.2800    7.1990  -17.5070 C   0  0  0  0  0  0  0  0  0  0  0  0
   -9.4650    7.9530  -16.5580 O   0  0  0  0  0  0  0  0  0  0  0  0
   -9.1120    5.7420  -17.2680 C   0  0  0  0  0  0  0  0  0  0  0  0
   -7.9350    5.1680  -17.7740 C   0  0  0  0  0  0  0  0  0  0  0  0
   -7.6780    3.8090  -17.5990 C   0  0  0  0  0  0  0  0  0  0  0  0
   -8.6000    3.0130  -16.9260 C   0  0  0  0  0  0  0  0  0  0  0  0
   -9.7830    3.5720  -16.4380 C   0  0  0  0  0  0  0  0  0  0  0  0
  -10.0610    4.9390  -16.6100 C   0  0  0  0  0  0  0  0  0  0  0  0
  -11.6380    5.5340  -16.0000 S   0  0  0  0  0  0  0  0  0  0  0  0
  -11.9470    4.3400  -14.7040 C   0  0  0  0  0  0  0  0  0  0  0  0
  -13.2400    4.2170  -14.1840 C   0  0  0  0  0  0  0  0  0  0  0  0
  -13.5260    3.2940  -13.1690 C   0  0  0  0  0  0  0  0  0  0  0  0
  -12.4900    2.4790  -12.6700 C   0  0  0  0  0  0  0  0  0  0  0  0
  -12.3600    1.4570  -11.6800 C   0  0  0  0  0  0  0  0  0  0  0  0
  -13.4330    0.9750  -10.8590 C   0  0  0  0  0  0  0  0  0  0  0  0
  -13.2850    0.1300   -9.8230 C   0  0  0  0  0  0  0  0  0  0  0  0
  -14.3930   -0.3540   -8.9920 C   0  0  0  0  0  0  0  0  0  0  0  0
  -15.0620    0.5260   -8.1450 C   0  0  0  0  0  0  0  0  0  0  0  0
  -16.1110    0.0440   -7.3640 C   0  0  0  0  0  0  0  0  0  0  0  0
  -16.4620   -1.2970   -7.4500 C   0  0  0  0  0  0  0  0  0  0  0  0
  -15.7450   -2.1040   -8.3170 C   0  0  0  0  0  0  0  0  0  0  0  0
  -14.7240   -1.6640   -9.0860 N   0  0  0  0  0  0  0  0  0  0  0  0
  -11.1000    0.9990  -11.6140 N   0  0  0  0  0  0  0  0  0  0  0  0
  -10.4410    1.7150  -12.5380 N   0  0  0  0  0  0  0  0  0  0  0  0
  -11.2180    2.6170  -13.2110 C   0  0  0  0  0  0  0  0  0  0  0  0
  -10.9090    3.5250  -14.2300 C   0  0  0  0  0  0  0  0  0  0  0  0
   -9.3129    9.6120  -18.2469 H   0  0  0  0  0  0  0  0  0  0  0  0
   -8.4030    9.2692  -19.7573 H   0  0  0  0  0  0  0  0  0  0  0  0
  -10.1983    9.2102  -19.7573 H   0  0  0  0  0  0  0  0  0  0  0  0
   -8.9340    6.9520  -19.5240 H   0  0  0  0  0  0  0  0  0  0  0  0
   -7.2098    5.7955  -18.3128 H   0  0  0  0  0  0  0  0  0  0  0  0
   -6.7500    3.3676  -17.9914 H   0  0  0  0  0  0  0  0  0  0  0  0
   -8.3967    1.9421  -16.7782 H   0  0  0  0  0  0  0  0  0  0  0  0
  -10.5076    2.9334  -15.9115 H   0  0  0  0  0  0  0  0  0  0  0  0
  -14.0449    4.8549  -14.5781 H   0  0  0  0  0  0  0  0  0  0  0  0
  -14.5461    3.2067  -12.7668 H   0  0  0  0  0  0  0  0  0  0  0  0
  -14.4503    1.3214  -11.0936 H   0  0  0  0  0  0  0  0  0  0  0  0
  -12.2699   -0.2200   -9.5839 H   0  0  0  0  0  0  0  0  0  0  0  0
  -14.7673    1.5845   -8.0932 H   0  0  0  0  0  0  0  0  0  0  0  0
  -16.6551    0.7186   -6.6866 H   0  0  0  0  0  0  0  0  0  0  0  0
  -17.2858   -1.7061   -6.8467 H   0  0  0  0  0  0  0  0  0  0  0  0
  -16.0227   -3.1663   -8.3840 H   0  0  0  0  0  0  0  0  0  0  0  0
   -9.4510    1.5420  -12.6640 H   0  0  0  0  0  0  0  0  0  0  0  0
   -9.8919    3.5966  -14.6429 H   0  0  0  0  0  0  0  0  0  0  0  0
  1  2  1  0
  2  3  1  0
  3  4  2  0
  3  5  1  0
  5  6  2  0
  6  7  1  0
  7  8  2  0
  8  9  1  0
  9 10  2  0
 10 11  1  0
 11 12  1  0
 12 13  2  0
 13 14  1  0
 14 15  2  0
 15 16  1  0
 16 17  1  0
 17 18  2  0
 18 19  1  0
 19 20  2  0
 20 21  1  0
 21 22  2  0
 22 23  1  0
 23 24  2  0
 16 25  2  0
 25 26  1  0
 26 27  1  0
 27 28  2  0
 10  5  1  0
 28 12  1  0
 27 15  1  0
 24 19  1  0
  1 29  1  0
  1 30  1  0
  1 31  1  0
  2 32  1  0
  6 33  1  0
  7 34  1  0
  8 35  1  0
  9 36  1  0
 13 37  1  0
 14 38  1  0
 17 39  1  0
 18 40  1  0
 20 41  1  0
 21 42  1  0
 22 43  1  0
 23 44  1  0
 26 45  1  0
 28 46  1  0
M  END
>  <meeko>  (7) 
{"is_sidechain": false}

>  <vina_affinity_kcal_mol>  (7) 
-8.055

>  <pose_rank>  (7) 
7

$$$$

     RDKit          3D

 46 49  0  0  0  0  0  0  0  0999 V2000
   -2.8030    0.7640  -17.0230 C   0  0  0  0  0  0  0  0  0  0  0  0
   -3.5670    0.5300  -15.8250 N   0  0  0  0  0  0  0  0  0  0  0  0
   -3.6510   -0.7260  -15.2670 C   0  0  0  0  0  0  0  0  0  0  0  0
   -3.0110   -1.6940  -15.6600 O   0  0  0  0  0  0  0  0  0  0  0  0
   -4.5580   -0.8680  -14.0980 C   0  0  0  0  0  0  0  0  0  0  0  0
   -3.9570   -0.7500  -12.8340 C   0  0  0  0  0  0  0  0  0  0  0  0
   -4.7200   -0.8630  -11.6730 C   0  0  0  0  0  0  0  0  0  0  0  0
   -6.0870   -1.1040  -11.7670 C   0  0  0  0  0  0  0  0  0  0  0  0
   -6.6900   -1.2430  -13.0190 C   0  0  0  0  0  0  0  0  0  0  0  0
   -5.9350   -1.1380  -14.1990 C   0  0  0  0  0  0  0  0  0  0  0  0
   -6.8000   -1.3980  -15.7480 S   0  0  0  0  0  0  0  0  0  0  0  0
   -7.5650    0.2070  -15.9560 C   0  0  0  0  0  0  0  0  0  0  0  0
   -7.0570    1.0830  -16.9200 C   0  0  0  0  0  0  0  0  0  0  0  0
   -7.6260    2.3500  -17.1160 C   0  0  0  0  0  0  0  0  0  0  0  0
   -8.7280    2.7370  -16.3280 C   0  0  0  0  0  0  0  0  0  0  0  0
   -9.5660    3.8890  -16.2110 C   0  0  0  0  0  0  0  0  0  0  0  0
   -9.4320    5.0780  -17.0000 C   0  0  0  0  0  0  0  0  0  0  0  0
  -10.0380    5.2850  -18.1840 C   0  0  0  0  0  0  0  0  0  0  0  0
   -9.8920    6.5080  -18.9800 C   0  0  0  0  0  0  0  0  0  0  0  0
   -9.5170    7.6990  -18.3640 C   0  0  0  0  0  0  0  0  0  0  0  0
   -9.3850    8.8480  -19.1410 C   0  0  0  0  0  0  0  0  0  0  0  0
   -9.6300    8.7780  -20.5060 C   0  0  0  0  0  0  0  0  0  0  0  0
   -9.9990    7.5540  -21.0390 C   0  0  0  0  0  0  0  0  0  0  0  0
  -10.1340    6.4240  -20.3110 N   0  0  0  0  0  0  0  0  0  0  0  0
  -10.5000    3.7180  -15.2630 N   0  0  0  0  0  0  0  0  0  0  0  0
  -10.2630    2.4870  -14.7860 N   0  0  0  0  0  0  0  0  0  0  0  0
   -9.2160    1.8420  -15.3850 C   0  0  0  0  0  0  0  0  0  0  0  0
   -8.6710    0.5700  -15.1750 C   0  0  0  0  0  0  0  0  0  0  0  0
   -1.7835    1.0763  -16.7526 H   0  0  0  0  0  0  0  0  0  0  0  0
   -2.7579   -0.1615  -17.6158 H   0  0  0  0  0  0  0  0  0  0  0  0
   -3.2840    1.5560  -17.6158 H   0  0  0  0  0  0  0  0  0  0  0  0
   -4.2430    1.2300  -15.5420 H   0  0  0  0  0  0  0  0  0  0  0  0
   -2.8749   -0.5668  -12.7597 H   0  0  0  0  0  0  0  0  0  0  0  0
   -4.2434   -0.7621  -10.6868 H   0  0  0  0  0  0  0  0  0  0  0  0
   -6.6941   -1.1852  -10.8533 H   0  0  0  0  0  0  0  0  0  0  0  0
   -7.7709   -1.4373  -13.0820 H   0  0  0  0  0  0  0  0  0  0  0  0
   -6.1982    0.7740  -17.5340 H   0  0  0  0  0  0  0  0  0  0  0  0
   -7.2170    3.0328  -17.8753 H   0  0  0  0  0  0  0  0  0  0  0  0
   -8.7873    5.8793  -16.6098 H   0  0  0  0  0  0  0  0  0  0  0  0
  -10.6833    4.4867  -18.5793 H   0  0  0  0  0  0  0  0  0  0  0  0
   -9.3279    7.7323  -17.2809 H   0  0  0  0  0  0  0  0  0  0  0  0
   -9.0897    9.8010  -18.6778 H   0  0  0  0  0  0  0  0  0  0  0  0
   -9.5339    9.6682  -21.1450 H   0  0  0  0  0  0  0  0  0  0  0  0
  -10.1939    7.4987  -22.1202 H   0  0  0  0  0  0  0  0  0  0  0  0
  -10.8550    2.1370  -14.0410 H   0  0  0  0  0  0  0  0  0  0  0  0
   -9.0936   -0.1172  -14.4272 H   0  0  0  0  0  0  0  0  0  0  0  0
  1  2  1  0
  2  3  1  0
  3  4  2  0
  3  5  1  0
  5  6  2  0
  6  7  1  0
  7  8  2  0
  8  9  1  0
  9 10  2  0
 10 11  1  0
 11 12  1  0
 12 13  2  0
 13 14  1  0
 14 15  2  0
 15 16  1  0
 16 17  1  0
 17 18  2  0
 18 19  1  0
 19 20  2  0
 20 21  1  0
 21 22  2  0
 22 23  1  0
 23 24  2  0
 16 25  2  0
 25 26  1  0
 26 27  1  0
 27 28  2  0
 10  5  1  0
 28 12  1  0
 27 15  1  0
 24 19  1  0
  1 29  1  0
  1 30  1  0
  1 31  1  0
  2 32  1  0
  6 33  1  0
  7 34  1  0
  8 35  1  0
  9 36  1  0
 13 37  1  0
 14 38  1  0
 17 39  1  0
 18 40  1  0
 20 41  1  0
 21 42  1  0
 22 43  1  0
 23 44  1  0
 26 45  1  0
 28 46  1  0
M  END
>  <meeko>  (8) 
{"is_sidechain": false}

>  <vina_affinity_kcal_mol>  (8) 
-8.019

>  <pose_rank>  (8) 
8

$$$$

     RDKit          3D

 46 49  0  0  0  0  0  0  0  0999 V2000
  -12.1810    0.1400   -4.4440 C   0  0  0  0  0  0  0  0  0  0  0  0
  -12.8110   -0.6650   -5.4590 N   0  0  0  0  0  0  0  0  0  0  0  0
  -13.4620   -0.0870   -6.5260 C   0  0  0  0  0  0  0  0  0  0  0  0
  -13.4590    1.1170   -6.7590 O   0  0  0  0  0  0  0  0  0  0  0  0
  -14.1700   -1.0130   -7.4470 C   0  0  0  0  0  0  0  0  0  0  0  0
  -15.5160   -1.2730   -7.1430 C   0  0  0  0  0  0  0  0  0  0  0  0
  -16.2720   -2.1250   -7.9460 C   0  0  0  0  0  0  0  0  0  0  0  0
  -15.6860   -2.7300   -9.0540 C   0  0  0  0  0  0  0  0  0  0  0  0
  -14.3420   -2.4920   -9.3520 C   0  0  0  0  0  0  0  0  0  0  0  0
  -13.5640   -1.6420   -8.5490 C   0  0  0  0  0  0  0  0  0  0  0  0
  -11.8350   -1.4610   -8.9890 S   0  0  0  0  0  0  0  0  0  0  0  0
  -11.9680   -0.2560  -10.3050 C   0  0  0  0  0  0  0  0  0  0  0  0
  -10.9610   -0.1920  -11.2740 C   0  0  0  0  0  0  0  0  0  0  0  0
  -11.0250    0.7360  -12.3230 C   0  0  0  0  0  0  0  0  0  0  0  0
  -12.1260    1.6140  -12.3960 C   0  0  0  0  0  0  0  0  0  0  0  0
  -12.5580    2.6660  -13.2630 C   0  0  0  0  0  0  0  0  0  0  0  0
  -11.8420    3.1130  -14.4210 C   0  0  0  0  0  0  0  0  0  0  0  0
  -11.4210    4.3750  -14.6220 C   0  0  0  0  0  0  0  0  0  0  0  0
  -10.6880    4.8190  -15.8130 C   0  0  0  0  0  0  0  0  0  0  0  0
  -11.1160    5.9430  -16.5140 C   0  0  0  0  0  0  0  0  0  0  0  0
  -10.4050    6.3450  -17.6420 C   0  0  0  0  0  0  0  0  0  0  0  0
   -9.2890    5.6180  -18.0380 C   0  0  0  0  0  0  0  0  0  0  0  0
   -8.9320    4.5120  -17.2850 C   0  0  0  0  0  0  0  0  0  0  0  0
   -9.6030    4.1000  -16.1870 N   0  0  0  0  0  0  0  0  0  0  0  0
  -13.7260    3.1840  -12.8540 N   0  0  0  0  0  0  0  0  0  0  0  0
  -14.0300    2.4820  -11.7520 N   0  0  0  0  0  0  0  0  0  0  0  0
  -13.1140    1.5210  -11.4250 C   0  0  0  0  0  0  0  0  0  0  0  0
  -13.0770    0.5980  -10.3730 C   0  0  0  0  0  0  0  0  0  0  0  0
  -12.4710   -0.2306   -3.4497 H   0  0  0  0  0  0  0  0  0  0  0  0
  -11.0882    0.0791   -4.5536 H   0  0  0  0  0  0  0  0  0  0  0  0
  -12.5028    1.1862   -4.5536 H   0  0  0  0  0  0  0  0  0  0  0  0
  -12.9950   -1.6400   -5.2540 H   0  0  0  0  0  0  0  0  0  0  0  0
  -15.9776   -0.8002   -6.2636 H   0  0  0  0  0  0  0  0  0  0  0  0
  -17.3277   -2.3186   -7.7050 H   0  0  0  0  0  0  0  0  0  0  0  0
  -16.2816   -3.3961   -9.6956 H   0  0  0  0  0  0  0  0  0  0  0  0
  -13.8867   -2.9772  -10.2279 H   0  0  0  0  0  0  0  0  0  0  0  0
  -10.1055   -0.8806  -11.2119 H   0  0  0  0  0  0  0  0  0  0  0  0
  -10.2270    0.7786  -13.0789 H   0  0  0  0  0  0  0  0  0  0  0  0
  -11.6206    2.3707  -15.2020 H   0  0  0  0  0  0  0  0  0  0  0  0
  -11.6402    5.1212  -13.8441 H   0  0  0  0  0  0  0  0  0  0  0  0
  -12.0017    6.5047  -16.1822 H   0  0  0  0  0  0  0  0  0  0  0  0
  -10.7237    7.2291  -18.2137 H   0  0  0  0  0  0  0  0  0  0  0  0
   -8.7064    5.9123  -18.9234 H   0  0  0  0  0  0  0  0  0  0  0  0
   -8.0500    3.9347  -17.5994 H   0  0  0  0  0  0  0  0  0  0  0  0
  -14.8870    2.7090  -11.2590 H   0  0  0  0  0  0  0  0  0  0  0  0
  -13.8860    0.5452   -9.6296 H   0  0  0  0  0  0  0  0  0  0  0  0
  1  2  1  0
  2  3  1  0
  3  4  2  0
  3  5  1  0
  5  6  2  0
  6  7  1  0
  7  8  2  0
  8  9  1  0
  9 10  2  0
 10 11  1  0
 11 12  1  0
 12 13  2  0
 13 14  1  0
 14 15  2  0
 15 16  1  0
 16 17  1  0
 17 18  2  0
 18 19  1  0
 19 20  2  0
 20 21  1  0
 21 22  2  0
 22 23  1  0
 23 24  2  0
 16 25  2  0
 25 26  1  0
 26 27  1  0
 27 28  2  0
 10  5  1  0
 28 12  1  0
 27 15  1  0
 24 19  1  0
  1 29  1  0
  1 30  1  0
  1 31  1  0
  2 32  1  0
  6 33  1  0
  7 34  1  0
  8 35  1  0
  9 36  1  0
 13 37  1  0
 14 38  1  0
 17 39  1  0
 18 40  1  0
 20 41  1  0
 21 42  1  0
 22 43  1  0
 23 44  1  0
 26 45  1  0
 28 46  1  0
M  END
>  <meeko>  (9) 
{"is_sidechain": false}

>  <vina_affinity_kcal_mol>  (9) 
-8.001

>  <pose_rank>  (9) 
9

$$$$

     RDKit          3D

 46 49  0  0  0  0  0  0  0  0999 V2000
   -9.4360    8.6000  -18.9980 C   0  0  0  0  0  0  0  0  0  0  0  0
   -9.4980    7.5810  -17.9820 N   0  0  0  0  0  0  0  0  0  0  0  0
  -10.2300    6.4300  -18.1700 C   0  0  0  0  0  0  0  0  0  0  0  0
  -10.7750    6.1300  -19.2270 O   0  0  0  0  0  0  0  0  0  0  0  0
  -10.3120    5.5040  -17.0110 C   0  0  0  0  0  0  0  0  0  0  0  0
  -11.4190    5.6740  -16.1650 C   0  0  0  0  0  0  0  0  0  0  0  0
  -11.5930    4.8540  -15.0510 C   0  0  0  0  0  0  0  0  0  0  0  0
  -10.6560    3.8630  -14.7710 C   0  0  0  0  0  0  0  0  0  0  0  0
   -9.5410    3.7010  -15.5950 C   0  0  0  0  0  0  0  0  0  0  0  0
   -9.3470    4.5230  -16.7180 C   0  0  0  0  0  0  0  0  0  0  0  0
   -7.8480    4.2670  -17.6680 S   0  0  0  0  0  0  0  0  0  0  0  0
   -7.1760    2.8410  -16.8200 C   0  0  0  0  0  0  0  0  0  0  0  0
   -6.0670    3.0060  -15.9840 C   0  0  0  0  0  0  0  0  0  0  0  0
   -5.5090    1.9160  -15.3010 C   0  0  0  0  0  0  0  0  0  0  0  0
   -6.0810    0.6380  -15.4630 C   0  0  0  0  0  0  0  0  0  0  0  0
   -5.8300   -0.6810  -14.9720 C   0  0  0  0  0  0  0  0  0  0  0  0
   -4.7720   -1.0270  -14.0690 C   0  0  0  0  0  0  0  0  0  0  0  0
   -4.7100   -0.6480  -12.7800 C   0  0  0  0  0  0  0  0  0  0  0  0
   -3.6210   -1.0110  -11.8660 C   0  0  0  0  0  0  0  0  0  0  0  0
   -3.0250   -2.2660  -11.9590 C   0  0  0  0  0  0  0  0  0  0  0  0
   -1.9920   -2.5890  -11.0810 C   0  0  0  0  0  0  0  0  0  0  0  0
   -1.5840   -1.6540  -10.1390 C   0  0  0  0  0  0  0  0  0  0  0  0
   -2.2300   -0.4290  -10.1140 C   0  0  0  0  0  0  0  0  0  0  0  0
   -3.2330   -0.0890  -10.9530 N   0  0  0  0  0  0  0  0  0  0  0  0
   -6.7160   -1.5600  -15.4650 N   0  0  0  0  0  0  0  0  0  0  0  0
   -7.5110   -0.8210  -16.2530 N   0  0  0  0  0  0  0  0  0  0  0  0
   -7.1870    0.5070  -16.2920 C   0  0  0  0  0  0  0  0  0  0  0  0
   -7.7670    1.5800  -16.9790 C   0  0  0  0  0  0  0  0  0  0  0  0
   -9.3758    9.5896  -18.5216 H   0  0  0  0  0  0  0  0  0  0  0  0
   -8.5459    8.4398  -19.6242 H   0  0  0  0  0  0  0  0  0  0  0  0
  -10.3389    8.5489  -19.6242 H   0  0  0  0  0  0  0  0  0  0  0  0
   -9.2160    7.8240  -17.0390 H   0  0  0  0  0  0  0  0  0  0  0  0
  -12.1558    6.4612  -16.3829 H   0  0  0  0  0  0  0  0  0  0  0  0
  -12.4665    4.9893  -14.3963 H   0  0  0  0  0  0  0  0  0  0  0  0
  -10.7946    3.2067  -13.8992 H   0  0  0  0  0  0  0  0  0  0  0  0
   -8.8037    2.9187  -15.3619 H   0  0  0  0  0  0  0  0  0  0  0  0
   -5.6258    4.0061  -15.8604 H   0  0  0  0  0  0  0  0  0  0  0  0
   -4.6358    2.0565  -14.6469 H   0  0  0  0  0  0  0  0  0  0  0  0
   -3.9514   -1.6474  -14.4584 H   0  0  0  0  0  0  0  0  0  0  0  0
   -5.5276   -0.0265  -12.3860 H   0  0  0  0  0  0  0  0  0  0  0  0
   -3.3641   -2.9910  -12.7135 H   0  0  0  0  0  0  0  0  0  0  0  0
   -1.5052   -3.5740  -11.1337 H   0  0  0  0  0  0  0  0  0  0  0  0
   -0.7712   -1.8796   -9.4330 H   0  0  0  0  0  0  0  0  0  0  0  0
   -1.9073    0.3109   -9.3668 H   0  0  0  0  0  0  0  0  0  0  0  0
   -8.2660   -1.2850  -16.7460 H   0  0  0  0  0  0  0  0  0  0  0  0
   -8.6512    1.4392  -17.6180 H   0  0  0  0  0  0  0  0  0  0  0  0
  1  2  1  0
  2  3  1  0
  3  4  2  0
  3  5  1  0
  5  6  2  0
  6  7  1  0
  7  8  2  0
  8  9  1  0
  9 10  2  0
 10 11  1  0
 11 12  1  0
 12 13  2  0
 13 14  1  0
 14 15  2  0
 15 16  1  0
 16 17  1  0
 17 18  2  0
 18 19  1  0
 19 20  2  0
 20 21  1  0
 21 22  2  0
 22 23  1  0
 23 24  2  0
 16 25  2  0
 25 26  1  0
 26 27  1  0
 27 28  2  0
 10  5  1  0
 28 12  1  0
 27 15  1  0
 24 19  1  0
  1 29  1  0
  1 30  1  0
  1 31  1  0
  2 32  1  0
  6 33  1  0
  7 34  1  0
  8 35  1  0
  9 36  1  0
 13 37  1  0
 14 38  1  0
 17 39  1  0
 18 40  1  0
 20 41  1  0
 21 42  1  0
 22 43  1  0
 23 44  1  0
 26 45  1  0
 28 46  1  0
M  END
>  <meeko>  (10) 
{"is_sidechain": false}

>  <vina_affinity_kcal_mol>  (10) 
-7.811

>  <pose_rank>  (10) 
10

$$$$
