
     RDKit          3D

 25 26  0  0  0  0  0  0  0  0999 V2000
  -38.6180  157.9500    2.9550 C   0  0  0  0  0  0  0  0  0  0  0  0
  -39.5760  158.6320    2.0260 C   0  0  0  0  0  0  0  0  0  0  0  0
  -40.9540  158.7210    2.4410 C   0  0  0  0  0  0  0  0  0  0  0  0
  -41.8600  159.2970    1.6470 C   0  0  0  0  0  0  0  0  0  0  0  0
  -41.4750  159.8780    0.3280 C   0  0  0  0  0  0  0  0  0  0  0  0
  -42.3720  160.4350   -0.3030 O   0  0  0  0  0  0  0  0  0  0  0  0
  -40.1140  159.7600   -0.0360 N   0  0  0  0  0  0  0  0  0  0  0  0
  -39.6570  160.2930   -1.3040 C   0  0  0  0  0  0  0  0  0  0  0  0
  -39.6180  161.6740   -1.5570 C   0  0  0  0  0  0  0  0  0  0  0  0
  -39.1920  162.1780   -2.7920 C   0  0  0  0  0  0  0  0  0  0  0  0
  -38.7940  161.3110   -3.8030 C   0  0  0  0  0  0  0  0  0  0  0  0
  -38.8210  159.9400   -3.5800 C   0  0  0  0  0  0  0  0  0  0  0  0
  -39.2500  159.4370   -2.3450 C   0  0  0  0  0  0  0  0  0  0  0  0
  -39.2150  159.1390    0.8390 C   0  0  0  0  0  0  0  0  0  0  0  0
  -38.9073  158.1560    3.9961 H   0  0  0  0  0  0  0  0  0  0  0  0
  -38.6426  156.8650    2.7754 H   0  0  0  0  0  0  0  0  0  0  0  0
  -37.6009  158.3284    2.7754 H   0  0  0  0  0  0  0  0  0  0  0  0
  -41.2601  158.3128    3.4155 H   0  0  0  0  0  0  0  0  0  0  0  0
  -42.9100  159.3440    1.9716 H   0  0  0  0  0  0  0  0  0  0  0  0
  -39.9288  162.3747   -0.7680 H   0  0  0  0  0  0  0  0  0  0  0  0
  -39.1722  163.2645   -2.9628 H   0  0  0  0  0  0  0  0  0  0  0  0
  -38.4599  161.7078   -4.7730 H   0  0  0  0  0  0  0  0  0  0  0  0
  -38.5049  159.2482   -4.3747 H   0  0  0  0  0  0  0  0  0  0  0  0
  -39.2693  158.3489   -2.1850 H   0  0  0  0  0  0  0  0  0  0  0  0
  -38.1599  159.0634    0.5374 H   0  0  0  0  0  0  0  0  0  0  0  0
  1  2  1  0
  2  3  1  0
  3  4  2  0
  4  5  1  0
  5  6  2  0
  5  7  1  0
  7  8  1  0
  8  9  2  0
  9 10  1  0
 10 11  2  0
 11 12  1  0
 12 13  2  0
  7 14  1  0
 14  2  2  0
 13  8  1  0
  1 15  1  0
  1 16  1  0
  1 17  1  0
  3 18  1  0
  4 19  1  0
  9 20  1  0
 10 21  1  0
 11 22  1  0
 12 23  1  0
 13 24  1  0
 14 25  1  0
M  END
>  <meeko>  (1) 
{"is_sidechain": false}

>  <vina_affinity_kcal_mol>  (1) 
-7.901

>  <pose_rank>  (1) 
1

$$$$

     RDKit          3D

 25 26  0  0  0  0  0  0  0  0999 V2000
  -38.9420  164.6290   -3.6200 C   0  0  0  0  0  0  0  0  0  0  0  0
  -38.9750  163.1440   -3.4260 C   0  0  0  0  0  0  0  0  0  0  0  0
  -38.6000  162.3180   -4.5460 C   0  0  0  0  0  0  0  0  0  0  0  0
  -38.6320  160.9870   -4.4430 C   0  0  0  0  0  0  0  0  0  0  0  0
  -39.0330  160.3200   -3.1710 C   0  0  0  0  0  0  0  0  0  0  0  0
  -38.9760  159.0910   -3.1590 O   0  0  0  0  0  0  0  0  0  0  0  0
  -39.3980  161.1730   -2.1030 N   0  0  0  0  0  0  0  0  0  0  0  0
  -39.8060  160.6050   -0.8330 C   0  0  0  0  0  0  0  0  0  0  0  0
  -38.8710  160.2090    0.1370 C   0  0  0  0  0  0  0  0  0  0  0  0
  -39.2760  159.6450    1.3530 C   0  0  0  0  0  0  0  0  0  0  0  0
  -40.6270  159.4650    1.6280 C   0  0  0  0  0  0  0  0  0  0  0  0
  -41.5730  159.8490    0.6860 C   0  0  0  0  0  0  0  0  0  0  0  0
  -41.1670  160.4110   -0.5310 C   0  0  0  0  0  0  0  0  0  0  0  0
  -39.3500  162.5600   -2.2780 C   0  0  0  0  0  0  0  0  0  0  0  0
  -38.9309  165.1268   -2.6391 H   0  0  0  0  0  0  0  0  0  0  0  0
  -38.0375  164.9054   -4.1817 H   0  0  0  0  0  0  0  0  0  0  0  0
  -39.8333  164.9453   -4.1817 H   0  0  0  0  0  0  0  0  0  0  0  0
  -38.2858  162.7864   -5.4904 H   0  0  0  0  0  0  0  0  0  0  0  0
  -38.3576  160.3714   -5.3123 H   0  0  0  0  0  0  0  0  0  0  0  0
  -37.7978  160.3447   -0.0626 H   0  0  0  0  0  0  0  0  0  0  0  0
  -38.5216  159.3429    2.0943 H   0  0  0  0  0  0  0  0  0  0  0  0
  -40.9441  159.0221    2.5837 H   0  0  0  0  0  0  0  0  0  0  0  0
  -42.6439  159.7113    0.8964 H   0  0  0  0  0  0  0  0  0  0  0  0
  -41.9287  160.7074   -1.2672 H   0  0  0  0  0  0  0  0  0  0  0  0
  -39.6338  163.2037   -1.4324 H   0  0  0  0  0  0  0  0  0  0  0  0
  1  2  1  0
  2  3  1  0
  3  4  2  0
  4  5  1  0
  5  6  2  0
  5  7  1  0
  7  8  1  0
  8  9  2  0
  9 10  1  0
 10 11  2  0
 11 12  1  0
 12 13  2  0
  7 14  1  0
 14  2  2  0
 13  8  1  0
  1 15  1  0
  1 16  1  0
  1 17  1  0
  3 18  1  0
  4 19  1  0
  9 20  1  0
 10 21  1  0
 11 22  1  0
 12 23  1  0
 13 24  1  0
 14 25  1  0
M  END
>  <meeko>  (2) 
{"is_sidechain": false}

>  <vina_affinity_kcal_mol>  (2) 
-7.786

>  <pose_rank>  (2) 
2

$$$$

     RDKit          3D

 25 26  0  0  0  0  0  0  0  0999 V2000
  -39.0780  163.1880   -2.9140 C   0  0  0  0  0  0  0  0  0  0  0  0
  -39.1490  161.7400   -2.5350 C   0  0  0  0  0  0  0  0  0  0  0  0
  -38.5960  160.7830   -3.4600 C   0  0  0  0  0  0  0  0  0  0  0  0
  -38.6510  159.4760   -3.1900 C   0  0  0  0  0  0  0  0  0  0  0  0
  -39.2600  158.9720   -1.9250 C   0  0  0  0  0  0  0  0  0  0  0  0
  -39.2110  157.7570   -1.7440 O   0  0  0  0  0  0  0  0  0  0  0  0
  -39.7940  159.9500   -1.0530 N   0  0  0  0  0  0  0  0  0  0  0  0
  -40.4100  159.5440    0.1940 C   0  0  0  0  0  0  0  0  0  0  0  0
  -41.7570  159.8180    0.4810 C   0  0  0  0  0  0  0  0  0  0  0  0
  -42.3370  159.4370    1.6970 C   0  0  0  0  0  0  0  0  0  0  0  0
  -41.5820  158.7700    2.6550 C   0  0  0  0  0  0  0  0  0  0  0  0
  -40.2470  158.4850    2.3980 C   0  0  0  0  0  0  0  0  0  0  0  0
  -39.6670  158.8690    1.1820 C   0  0  0  0  0  0  0  0  0  0  0  0
  -39.7120  161.3040   -1.3980 C   0  0  0  0  0  0  0  0  0  0  0  0
  -39.0478  163.8043   -2.0034 H   0  0  0  0  0  0  0  0  0  0  0  0
  -38.1700  163.3673   -3.5084 H   0  0  0  0  0  0  0  0  0  0  0  0
  -39.9641  163.4553   -3.5084 H   0  0  0  0  0  0  0  0  0  0  0  0
  -38.1267  161.1304   -4.3922 H   0  0  0  0  0  0  0  0  0  0  0  0
  -38.2394  158.7577   -3.9143 H   0  0  0  0  0  0  0  0  0  0  0  0
  -42.3700  160.3435   -0.2660 H   0  0  0  0  0  0  0  0  0  0  0  0
  -43.3944  159.6664    1.8952 H   0  0  0  0  0  0  0  0  0  0  0  0
  -42.0386  158.4701    3.6098 H   0  0  0  0  0  0  0  0  0  0  0  0
  -39.6439  157.9566    3.1510 H   0  0  0  0  0  0  0  0  0  0  0  0
  -38.6079  158.6383    0.9947 H   0  0  0  0  0  0  0  0  0  0  0  0
  -40.1297  162.0471   -0.7028 H   0  0  0  0  0  0  0  0  0  0  0  0
  1  2  1  0
  2  3  1  0
  3  4  2  0
  4  5  1  0
  5  6  2  0
  5  7  1  0
  7  8  1  0
  8  9  2  0
  9 10  1  0
 10 11  2  0
 11 12  1  0
 12 13  2  0
  7 14  1  0
 14  2  2  0
 13  8  1  0
  1 15  1  0
  1 16  1  0
  1 17  1  0
  3 18  1  0
  4 19  1  0
  9 20  1  0
 10 21  1  0
 11 22  1  0
 12 23  1  0
 13 24  1  0
 14 25  1  0
M  END
>  <meeko>  (3) 
{"is_sidechain": false}

>  <vina_affinity_kcal_mol>  (3) 
-7.677

>  <pose_rank>  (3) 
3

$$$$

     RDKit          3D

 25 26  0  0  0  0  0  0  0  0999 V2000
  -38.0350  162.9360   -8.0300 C   0  0  0  0  0  0  0  0  0  0  0  0
  -38.2470  163.3020   -6.5920 C   0  0  0  0  0  0  0  0  0  0  0  0
  -38.1630  164.6980   -6.2420 C   0  0  0  0  0  0  0  0  0  0  0  0
  -38.3190  165.0850   -4.9730 C   0  0  0  0  0  0  0  0  0  0  0  0
  -38.6040  164.0960   -3.8930 C   0  0  0  0  0  0  0  0  0  0  0  0
  -38.7870  164.5580   -2.7680 O   0  0  0  0  0  0  0  0  0  0  0  0
  -38.6710  162.7390   -4.2860 N   0  0  0  0  0  0  0  0  0  0  0  0
  -38.9380  161.7140   -3.2970 C   0  0  0  0  0  0  0  0  0  0  0  0
  -39.4220  162.0270   -2.0160 C   0  0  0  0  0  0  0  0  0  0  0  0
  -39.6600  161.0300   -1.0620 C   0  0  0  0  0  0  0  0  0  0  0  0
  -39.4210  159.6960   -1.3680 C   0  0  0  0  0  0  0  0  0  0  0  0
  -38.9430  159.3570   -2.6280 C   0  0  0  0  0  0  0  0  0  0  0  0
  -38.7030  160.3550   -3.5810 C   0  0  0  0  0  0  0  0  0  0  0  0
  -38.4910  162.3990   -5.6310 C   0  0  0  0  0  0  0  0  0  0  0  0
  -37.4844  161.9855   -8.0891 H   0  0  0  0  0  0  0  0  0  0  0  0
  -39.0097  162.8268   -8.5281 H   0  0  0  0  0  0  0  0  0  0  0  0
  -37.4553  163.7271   -8.5281 H   0  0  0  0  0  0  0  0  0  0  0  0
  -37.9696  165.4478   -7.0233 H   0  0  0  0  0  0  0  0  0  0  0  0
  -38.2358  166.1522   -4.7198 H   0  0  0  0  0  0  0  0  0  0  0  0
  -39.6183  163.0778   -1.7567 H   0  0  0  0  0  0  0  0  0  0  0  0
  -40.0378  161.3042   -0.0660 H   0  0  0  0  0  0  0  0  0  0  0  0
  -39.6089  158.9136   -0.6180 H   0  0  0  0  0  0  0  0  0  0  0  0
  -38.7527  158.3027   -2.8775 H   0  0  0  0  0  0  0  0  0  0  0  0
  -38.3225  160.0709   -4.5732 H   0  0  0  0  0  0  0  0  0  0  0  0
  -38.5527  161.3380   -5.9145 H   0  0  0  0  0  0  0  0  0  0  0  0
  1  2  1  0
  2  3  1  0
  3  4  2  0
  4  5  1  0
  5  6  2  0
  5  7  1  0
  7  8  1  0
  8  9  2  0
  9 10  1  0
 10 11  2  0
 11 12  1  0
 12 13  2  0
  7 14  1  0
 14  2  2  0
 13  8  1  0
  1 15  1  0
  1 16  1  0
  1 17  1  0
  3 18  1  0
  4 19  1  0
  9 20  1  0
 10 21  1  0
 11 22  1  0
 12 23  1  0
 13 24  1  0
 14 25  1  0
M  END
>  <meeko>  (4) 
{"is_sidechain": false}

>  <vina_affinity_kcal_mol>  (4) 
-7.5

>  <pose_rank>  (4) 
4

$$$$

     RDKit          3D

 25 26  0  0  0  0  0  0  0  0999 V2000
  -38.3830  163.2590   -6.4490 C   0  0  0  0  0  0  0  0  0  0  0  0
  -38.5470  163.2170   -4.9600 C   0  0  0  0  0  0  0  0  0  0  0  0
  -38.5030  164.4710   -4.2520 C   0  0  0  0  0  0  0  0  0  0  0  0
  -38.6190  164.4980   -2.9210 C   0  0  0  0  0  0  0  0  0  0  0  0
  -38.8160  163.2440   -2.1380 C   0  0  0  0  0  0  0  0  0  0  0  0
  -38.9680  163.3790   -0.9240 O   0  0  0  0  0  0  0  0  0  0  0  0
  -38.8460  162.0390   -2.8780 N   0  0  0  0  0  0  0  0  0  0  0  0
  -39.0290  160.7760   -2.1910 C   0  0  0  0  0  0  0  0  0  0  0  0
  -40.0250  160.5970   -1.2190 C   0  0  0  0  0  0  0  0  0  0  0  0
  -40.1810  159.3770   -0.5490 C   0  0  0  0  0  0  0  0  0  0  0  0
  -39.3440  158.3060   -0.8390 C   0  0  0  0  0  0  0  0  0  0  0  0
  -38.3500  158.4550   -1.7980 C   0  0  0  0  0  0  0  0  0  0  0  0
  -38.1930  159.6760   -2.4660 C   0  0  0  0  0  0  0  0  0  0  0  0
  -38.7120  162.0790   -4.2700 C   0  0  0  0  0  0  0  0  0  0  0  0
  -37.3446  163.5250   -6.6962 H   0  0  0  0  0  0  0  0  0  0  0  0
  -38.6191  162.2714   -6.8719 H   0  0  0  0  0  0  0  0  0  0  0  0
  -39.0648  164.0115   -6.8719 H   0  0  0  0  0  0  0  0  0  0  0  0
  -38.3733  165.4103   -4.8095 H   0  0  0  0  0  0  0  0  0  0  0  0
  -38.5683  165.4620   -2.3936 H   0  0  0  0  0  0  0  0  0  0  0  0
  -40.6980  161.4331   -0.9780 H   0  0  0  0  0  0  0  0  0  0  0  0
  -40.9694  159.2660    0.2100 H   0  0  0  0  0  0  0  0  0  0  0  0
  -39.4677  157.3477   -0.3132 H   0  0  0  0  0  0  0  0  0  0  0  0
  -37.6843  157.6116   -2.0334 H   0  0  0  0  0  0  0  0  0  0  0  0
  -37.4000  159.7782   -3.2215 H   0  0  0  0  0  0  0  0  0  0  0  0
  -38.7435  161.1303   -4.8259 H   0  0  0  0  0  0  0  0  0  0  0  0
  1  2  1  0
  2  3  1  0
  3  4  2  0
  4  5  1  0
  5  6  2  0
  5  7  1  0
  7  8  1  0
  8  9  2  0
  9 10  1  0
 10 11  2  0
 11 12  1  0
 12 13  2  0
  7 14  1  0
 14  2  2  0
 13  8  1  0
  1 15  1  0
  1 16  1  0
  1 17  1  0
  3 18  1  0
  4 19  1  0
  9 20  1  0
 10 21  1  0
 11 22  1  0
 12 23  1  0
 13 24  1  0
 14 25  1  0
M  END
>  <meeko>  (5) 
{"is_sidechain": false}

>  <vina_affinity_kcal_mol>  (5) 
-7.423

>  <pose_rank>  (5) 
5

$$$$

     RDKit          3D

 25 26  0  0  0  0  0  0  0  0999 V2000
  -39.1900  157.8020   -2.0220 C   0  0  0  0  0  0  0  0  0  0  0  0
  -39.1370  159.2810   -1.7850 C   0  0  0  0  0  0  0  0  0  0  0  0
  -39.2970  159.7430   -0.4300 C   0  0  0  0  0  0  0  0  0  0  0  0
  -39.2820  161.0510   -0.1590 C   0  0  0  0  0  0  0  0  0  0  0  0
  -39.0800  162.0620   -1.2360 C   0  0  0  0  0  0  0  0  0  0  0  0
  -39.0260  163.2370   -0.8760 O   0  0  0  0  0  0  0  0  0  0  0  0
  -38.9330  161.5590   -2.5500 N   0  0  0  0  0  0  0  0  0  0  0  0
  -38.7380  162.4750   -3.6560 C   0  0  0  0  0  0  0  0  0  0  0  0
  -38.9620  163.8550   -3.5240 C   0  0  0  0  0  0  0  0  0  0  0  0
  -38.7870  164.7290   -4.6050 C   0  0  0  0  0  0  0  0  0  0  0  0
  -38.3820  164.2420   -5.8420 C   0  0  0  0  0  0  0  0  0  0  0  0
  -38.1520  162.8810   -6.0000 C   0  0  0  0  0  0  0  0  0  0  0  0
  -38.3300  162.0070   -4.9190 C   0  0  0  0  0  0  0  0  0  0  0  0
  -38.9650  160.1770   -2.7690 C   0  0  0  0  0  0  0  0  0  0  0  0
  -39.2088  157.2763   -1.0559 H   0  0  0  0  0  0  0  0  0  0  0  0
  -40.0976  157.5543   -2.5920 H   0  0  0  0  0  0  0  0  0  0  0  0
  -38.3025  157.4900   -2.5920 H   0  0  0  0  0  0  0  0  0  0  0  0
  -39.4320  159.0161    0.3845 H   0  0  0  0  0  0  0  0  0  0  0  0
  -39.4213  161.3886    0.8786 H   0  0  0  0  0  0  0  0  0  0  0  0
  -39.2815  164.2582   -2.5517 H   0  0  0  0  0  0  0  0  0  0  0  0
  -38.9710  165.8056   -4.4740 H   0  0  0  0  0  0  0  0  0  0  0  0
  -38.2445  164.9292   -6.6899 H   0  0  0  0  0  0  0  0  0  0  0  0
  -37.8295  162.4885   -6.9757 H   0  0  0  0  0  0  0  0  0  0  0  0
  -38.1468  160.9317   -5.0608 H   0  0  0  0  0  0  0  0  0  0  0  0
  -38.8432  159.8073   -3.7978 H   0  0  0  0  0  0  0  0  0  0  0  0
  1  2  1  0
  2  3  1  0
  3  4  2  0
  4  5  1  0
  5  6  2  0
  5  7  1  0
  7  8  1  0
  8  9  2  0
  9 10  1  0
 10 11  2  0
 11 12  1  0
 12 13  2  0
  7 14  1  0
 14  2  2  0
 13  8  1  0
  1 15  1  0
  1 16  1  0
  1 17  1  0
  3 18  1  0
  4 19  1  0
  9 20  1  0
 10 21  1  0
 11 22  1  0
 12 23  1  0
 13 24  1  0
 14 25  1  0
M  END
>  <meeko>  (6) 
{"is_sidechain": false}

>  <vina_affinity_kcal_mol>  (6) 
-7.377

>  <pose_rank>  (6) 
6

$$$$

     RDKit          3D

 25 26  0  0  0  0  0  0  0  0999 V2000
  -42.4220  160.6190    0.6520 C   0  0  0  0  0  0  0  0  0  0  0  0
  -41.1690  160.2820   -0.0980 C   0  0  0  0  0  0  0  0  0  0  0  0
  -40.3870  159.1700    0.3810 C   0  0  0  0  0  0  0  0  0  0  0  0
  -39.2470  158.8350   -0.2310 C   0  0  0  0  0  0  0  0  0  0  0  0
  -38.7650  159.5810   -1.4290 C   0  0  0  0  0  0  0  0  0  0  0  0
  -37.7350  159.1600   -1.9530 O   0  0  0  0  0  0  0  0  0  0  0  0
  -39.5640  160.6670   -1.8560 N   0  0  0  0  0  0  0  0  0  0  0  0
  -39.1630  161.4480   -3.0090 C   0  0  0  0  0  0  0  0  0  0  0  0
  -39.0230  162.8430   -2.9480 C   0  0  0  0  0  0  0  0  0  0  0  0
  -38.6520  163.5900   -4.0730 C   0  0  0  0  0  0  0  0  0  0  0  0
  -38.4110  162.9560   -5.2870 C   0  0  0  0  0  0  0  0  0  0  0  0
  -38.5410  161.5760   -5.3760 C   0  0  0  0  0  0  0  0  0  0  0  0
  -38.9150  160.8310   -4.2500 C   0  0  0  0  0  0  0  0  0  0  0  0
  -40.7440  160.9710   -1.1670 C   0  0  0  0  0  0  0  0  0  0  0  0
  -42.2274  160.5667    1.7334 H   0  0  0  0  0  0  0  0  0  0  0  0
  -42.7459  161.6362    0.3866 H   0  0  0  0  0  0  0  0  0  0  0  0
  -43.2124  159.9015    0.3866 H   0  0  0  0  0  0  0  0  0  0  0  0
  -40.7298  158.5948    1.2537 H   0  0  0  0  0  0  0  0  0  0  0  0
  -38.6534  157.9937    0.1560 H   0  0  0  0  0  0  0  0  0  0  0  0
  -39.2087  163.3611   -1.9956 H   0  0  0  0  0  0  0  0  0  0  0  0
  -38.5508  164.6826   -3.9960 H   0  0  0  0  0  0  0  0  0  0  0  0
  -38.1195  163.5431   -6.1704 H   0  0  0  0  0  0  0  0  0  0  0  0
  -38.3500  161.0671   -6.3323 H   0  0  0  0  0  0  0  0  0  0  0  0
  -39.0172  159.7393   -4.3375 H   0  0  0  0  0  0  0  0  0  0  0  0
  -41.3525  161.8167   -1.5199 H   0  0  0  0  0  0  0  0  0  0  0  0
  1  2  1  0
  2  3  1  0
  3  4  2  0
  4  5  1  0
  5  6  2  0
  5  7  1  0
  7  8  1  0
  8  9  2  0
  9 10  1  0
 10 11  2  0
 11 12  1  0
 12 13  2  0
  7 14  1  0
 14  2  2  0
 13  8  1  0
  1 15  1  0
  1 16  1  0
  1 17  1  0
  3 18  1  0
  4 19  1  0
  9 20  1  0
 10 21  1  0
 11 22  1  0
 12 23  1  0
 13 24  1  0
 14 25  1  0
M  END
>  <meeko>  (7) 
{"is_sidechain": false}

>  <vina_affinity_kcal_mol>  (7) 
-7.327

>  <pose_rank>  (7) 
7

$$$$

     RDKit          3D

 25 26  0  0  0  0  0  0  0  0999 V2000
  -42.4290  160.6190    0.6320 C   0  0  0  0  0  0  0  0  0  0  0  0
  -41.1720  160.2950   -0.1170 C   0  0  0  0  0  0  0  0  0  0  0  0
  -40.3840  159.1840    0.3550 C   0  0  0  0  0  0  0  0  0  0  0  0
  -39.2410  158.8610   -0.2570 C   0  0  0  0  0  0  0  0  0  0  0  0
  -38.7610  159.6180   -1.4480 C   0  0  0  0  0  0  0  0  0  0  0  0
  -37.7270  159.2080   -1.9730 O   0  0  0  0  0  0  0  0  0  0  0  0
  -39.5660  160.7030   -1.8690 N   0  0  0  0  0  0  0  0  0  0  0  0
  -39.1670  161.4940   -3.0160 C   0  0  0  0  0  0  0  0  0  0  0  0
  -38.9320  160.9130   -4.2720 C   0  0  0  0  0  0  0  0  0  0  0  0
  -38.5300  161.6850   -5.3700 C   0  0  0  0  0  0  0  0  0  0  0  0
  -38.3560  163.0580   -5.2350 C   0  0  0  0  0  0  0  0  0  0  0  0
  -38.5830  163.6590   -4.0040 C   0  0  0  0  0  0  0  0  0  0  0  0
  -38.9830  162.8850   -2.9060 C   0  0  0  0  0  0  0  0  0  0  0  0
  -40.7490  160.9940   -1.1810 C   0  0  0  0  0  0  0  0  0  0  0  0
  -42.2346  160.5689    1.7135 H   0  0  0  0  0  0  0  0  0  0  0  0
  -42.7633  161.6327    0.3661 H   0  0  0  0  0  0  0  0  0  0  0  0
  -43.2117  159.8932    0.3661 H   0  0  0  0  0  0  0  0  0  0  0  0
  -40.7250  158.5998    1.2224 H   0  0  0  0  0  0  0  0  0  0  0  0
  -38.6430  158.0206    0.1253 H   0  0  0  0  0  0  0  0  0  0  0  0
  -39.0663  159.8284   -4.3969 H   0  0  0  0  0  0  0  0  0  0  0  0
  -38.3514  161.2031   -6.3426 H   0  0  0  0  0  0  0  0  0  0  0  0
  -38.0407  163.6638   -6.0974 H   0  0  0  0  0  0  0  0  0  0  0  0
  -38.4486  164.7448   -3.8903 H   0  0  0  0  0  0  0  0  0  0  0  0
  -39.1569  163.3756   -1.9369 H   0  0  0  0  0  0  0  0  0  0  0  0
  -41.3626  161.8377   -1.5298 H   0  0  0  0  0  0  0  0  0  0  0  0
  1  2  1  0
  2  3  1  0
  3  4  2  0
  4  5  1  0
  5  6  2  0
  5  7  1  0
  7  8  1  0
  8  9  2  0
  9 10  1  0
 10 11  2  0
 11 12  1  0
 12 13  2  0
  7 14  1  0
 14  2  2  0
 13  8  1  0
  1 15  1  0
  1 16  1  0
  1 17  1  0
  3 18  1  0
  4 19  1  0
  9 20  1  0
 10 21  1  0
 11 22  1  0
 12 23  1  0
 13 24  1  0
 14 25  1  0
M  END
>  <meeko>  (8) 
{"is_sidechain": false}

>  <vina_affinity_kcal_mol>  (8) 
-7.309

>  <pose_rank>  (8) 
8

$$$$

     RDKit          3D

 25 26  0  0  0  0  0  0  0  0999 V2000
  -39.0060  160.9520   -5.5230 C   0  0  0  0  0  0  0  0  0  0  0  0
  -39.0200  161.5440   -4.1460 C   0  0  0  0  0  0  0  0  0  0  0  0
  -38.7070  162.9450   -4.0220 C   0  0  0  0  0  0  0  0  0  0  0  0
  -38.6800  163.5250   -2.8190 C   0  0  0  0  0  0  0  0  0  0  0  0
  -38.9910  162.7530   -1.5810 C   0  0  0  0  0  0  0  0  0  0  0  0
  -38.9940  163.3890   -0.5290 O   0  0  0  0  0  0  0  0  0  0  0  0
  -39.2860  161.3800   -1.7550 N   0  0  0  0  0  0  0  0  0  0  0  0
  -39.5930  160.5570   -0.6030 C   0  0  0  0  0  0  0  0  0  0  0  0
  -38.5880  159.9350    0.1540 C   0  0  0  0  0  0  0  0  0  0  0  0
  -38.8970  159.1270    1.2560 C   0  0  0  0  0  0  0  0  0  0  0  0
  -40.2210  158.9240    1.6260 C   0  0  0  0  0  0  0  0  0  0  0  0
  -41.2370  159.5280    0.8950 C   0  0  0  0  0  0  0  0  0  0  0  0
  -40.9260  160.3340   -0.2070 C   0  0  0  0  0  0  0  0  0  0  0  0
  -39.2910  160.8310   -3.0430 C   0  0  0  0  0  0  0  0  0  0  0  0
  -38.9801  159.8547   -5.4501 H   0  0  0  0  0  0  0  0  0  0  0  0
  -39.9117  161.2622   -6.0647 H   0  0  0  0  0  0  0  0  0  0  0  0
  -38.1159  161.3046   -6.0647 H   0  0  0  0  0  0  0  0  0  0  0  0
  -38.4894  163.5394   -4.9217 H   0  0  0  0  0  0  0  0  0  0  0  0
  -38.4237  164.5918   -2.7398 H   0  0  0  0  0  0  0  0  0  0  0  0
  -37.5344  160.0853   -0.1241 H   0  0  0  0  0  0  0  0  0  0  0  0
  -38.0885  158.6515    1.8306 H   0  0  0  0  0  0  0  0  0  0  0  0
  -40.4632  158.2897    2.4914 H   0  0  0  0  0  0  0  0  0  0  0  0
  -42.2873  159.3726    1.1826 H   0  0  0  0  0  0  0  0  0  0  0  0
  -41.7415  160.8037   -0.7764 H   0  0  0  0  0  0  0  0  0  0  0  0
  -39.5288  159.7629   -3.1556 H   0  0  0  0  0  0  0  0  0  0  0  0
  1  2  1  0
  2  3  1  0
  3  4  2  0
  4  5  1  0
  5  6  2  0
  5  7  1  0
  7  8  1  0
  8  9  2  0
  9 10  1  0
 10 11  2  0
 11 12  1  0
 12 13  2  0
  7 14  1  0
 14  2  2  0
 13  8  1  0
  1 15  1  0
  1 16  1  0
  1 17  1  0
  3 18  1  0
  4 19  1  0
  9 20  1  0
 10 21  1  0
 11 22  1  0
 12 23  1  0
 13 24  1  0
 14 25  1  0
M  END
>  <meeko>  (9) 
{"is_sidechain": false}

>  <vina_affinity_kcal_mol>  (9) 
-7.0

>  <pose_rank>  (9) 
9

$$$$

     RDKit          3D

 25 26  0  0  0  0  0  0  0  0999 V2000
  -38.9620  159.3360   -2.7810 C   0  0  0  0  0  0  0  0  0  0  0  0
  -38.9040  160.8200   -2.9850 C   0  0  0  0  0  0  0  0  0  0  0  0
  -39.1290  161.6590   -1.8350 C   0  0  0  0  0  0  0  0  0  0  0  0
  -39.1140  162.9890   -1.9580 C   0  0  0  0  0  0  0  0  0  0  0  0
  -38.8450  163.6400   -3.2720 C   0  0  0  0  0  0  0  0  0  0  0  0
  -38.7970  164.8690   -3.2700 O   0  0  0  0  0  0  0  0  0  0  0  0
  -38.6360  162.7750   -4.3710 N   0  0  0  0  0  0  0  0  0  0  0  0
  -38.3740  163.3280   -5.6850 C   0  0  0  0  0  0  0  0  0  0  0  0
  -38.4930  164.7010   -5.9490 C   0  0  0  0  0  0  0  0  0  0  0  0
  -38.2540  165.2230   -7.2270 C   0  0  0  0  0  0  0  0  0  0  0  0
  -37.8890  164.3800   -8.2700 C   0  0  0  0  0  0  0  0  0  0  0  0
  -37.7640  163.0170   -8.0370 C   0  0  0  0  0  0  0  0  0  0  0  0
  -38.0050  162.4960   -6.7590 C   0  0  0  0  0  0  0  0  0  0  0  0
  -38.6720  161.3890   -4.1770 C   0  0  0  0  0  0  0  0  0  0  0  0
  -38.9707  159.1140   -1.7037 H   0  0  0  0  0  0  0  0  0  0  0  0
  -39.8764  158.9376   -3.2448 H   0  0  0  0  0  0  0  0  0  0  0  0
  -38.0815  158.8674   -3.2448 H   0  0  0  0  0  0  0  0  0  0  0  0
  -39.3139  161.2021   -0.8516 H   0  0  0  0  0  0  0  0  0  0  0  0
  -39.3035  163.6153   -1.0738 H   0  0  0  0  0  0  0  0  0  0  0  0
  -38.7802  165.3824   -5.1347 H   0  0  0  0  0  0  0  0  0  0  0  0
  -38.3556  166.3037   -7.4055 H   0  0  0  0  0  0  0  0  0  0  0  0
  -37.7004  164.7899   -9.2732 H   0  0  0  0  0  0  0  0  0  0  0  0
  -37.4750  162.3444   -8.8580 H   0  0  0  0  0  0  0  0  0  0  0  0
  -37.9037  161.4136   -6.5912 H   0  0  0  0  0  0  0  0  0  0  0  0
  -38.5017  160.7347   -5.0447 H   0  0  0  0  0  0  0  0  0  0  0  0
  1  2  1  0
  2  3  1  0
  3  4  2  0
  4  5  1  0
  5  6  2  0
  5  7  1  0
  7  8  1  0
  8  9  2  0
  9 10  1  0
 10 11  2  0
 11 12  1  0
 12 13  2  0
  7 14  1  0
 14  2  2  0
 13  8  1  0
  1 15  1  0
  1 16  1  0
  1 17  1  0
  3 18  1  0
  4 19  1  0
  9 20  1  0
 10 21  1  0
 11 22  1  0
 12 23  1  0
 13 24  1  0
 14 25  1  0
M  END
>  <meeko>  (10) 
{"is_sidechain": false}

>  <vina_affinity_kcal_mol>  (10) 
-6.954

>  <pose_rank>  (10) 
10

$$$$
