
     RDKit          3D

 54 57  0  0  0  0  0  0  0  0999 V2000
  -12.6070   -5.2790   -9.7480 C   0  0  0  0  0  0  0  0  0  0  0  0
  -13.3180   -4.3110  -10.6840 C   0  0  0  0  0  0  0  0  0  0  0  0
  -12.7940   -2.9510  -10.5710 N   0  0  0  0  0  0  0  0  0  0  0  0
  -11.6830   -2.6290  -11.3550 C   0  0  0  0  0  0  0  0  0  0  0  0
  -11.1540   -3.4240  -12.1330 O   0  0  0  0  0  0  0  0  0  0  0  0
  -11.1300   -1.2400  -11.2330 C   0  0  0  0  0  0  0  0  0  0  0  0
   -9.9610   -0.8360  -12.0380 C   0  0  0  0  0  0  0  0  0  0  0  0
  -10.1820   -0.0300  -13.1730 C   0  0  0  0  0  0  0  0  0  0  0  0
   -9.1160    0.3760  -13.9780 C   0  0  0  0  0  0  0  0  0  0  0  0
   -9.2510    1.1790  -15.1310 N   0  0  0  0  0  0  0  0  0  0  0  0
   -9.1930    2.5620  -15.2030 C   0  0  0  0  0  0  0  0  0  0  0  0
   -8.9090    3.2920  -14.2630 O   0  0  0  0  0  0  0  0  0  0  0  0
   -9.4980    2.9850  -16.4870 N   0  0  0  0  0  0  0  0  0  0  0  0
   -9.4540    4.3020  -16.9930 C   0  0  0  0  0  0  0  0  0  0  0  0
  -10.3380    5.3130  -16.6150 C   0  0  0  0  0  0  0  0  0  0  0  0
  -10.2200    6.5980  -17.1570 C   0  0  0  0  0  0  0  0  0  0  0  0
   -9.2150    6.8820  -18.0780 C   0  0  0  0  0  0  0  0  0  0  0  0
   -8.3240    5.8820  -18.4570 C   0  0  0  0  0  0  0  0  0  0  0  0
   -8.4420    4.5990  -17.9150 C   0  0  0  0  0  0  0  0  0  0  0  0
   -7.8260   -0.0530  -13.6460 C   0  0  0  0  0  0  0  0  0  0  0  0
   -6.7900    0.3170  -14.4180 F   0  0  0  0  0  0  0  0  0  0  0  0
   -7.5820   -0.8430  -12.5290 C   0  0  0  0  0  0  0  0  0  0  0  0
   -8.6500   -1.2310  -11.7210 C   0  0  0  0  0  0  0  0  0  0  0  0
   -8.2500   -2.2790  -10.1850 Br  0  0  0  0  0  0  0  0  0  0  0  0
  -11.6800   -0.3530  -10.3910 C   0  0  0  0  0  0  0  0  0  0  0  0
  -12.8170   -0.7330   -9.5650 C   0  0  0  0  0  0  0  0  0  0  0  0
  -13.3820    0.1600   -8.6640 C   0  0  0  0  0  0  0  0  0  0  0  0
  -14.4290   -0.1290   -7.8610 N   0  0  0  0  0  0  0  0  0  0  0  0
  -14.9500   -1.3640   -7.9490 C   0  0  0  0  0  0  0  0  0  0  0  0
  -16.0170   -1.6260   -7.0870 N   0  0  0  0  0  0  0  0  0  0  0  0
  -16.5790   -0.4400   -6.4630 C   0  0  0  0  0  0  0  0  0  0  0  0
  -14.4420   -2.3290   -8.8130 C   0  0  0  0  0  0  0  0  0  0  0  0
  -13.3610   -2.0160   -9.6470 C   0  0  0  0  0  0  0  0  0  0  0  0
  -12.8132   -4.9983   -8.7046 H   0  0  0  0  0  0  0  0  0  0  0  0
  -12.9710   -6.3007   -9.9316 H   0  0  0  0  0  0  0  0  0  0  0  0
  -11.5232   -5.2373   -9.9316 H   0  0  0  0  0  0  0  0  0  0  0  0
  -13.1854   -4.6572  -11.7196 H   0  0  0  0  0  0  0  0  0  0  0  0
  -14.3814   -4.2884  -10.4035 H   0  0  0  0  0  0  0  0  0  0  0  0
  -11.2055    0.2826  -13.4273 H   0  0  0  0  0  0  0  0  0  0  0  0
   -9.1980    0.6760  -16.0090 H   0  0  0  0  0  0  0  0  0  0  0  0
   -9.9280    2.2980  -17.0870 H   0  0  0  0  0  0  0  0  0  0  0  0
  -11.1333    5.0987  -15.8859 H   0  0  0  0  0  0  0  0  0  0  0  0
  -10.9242    7.3869  -16.8541 H   0  0  0  0  0  0  0  0  0  0  0  0
   -9.1256    7.8921  -18.5042 H   0  0  0  0  0  0  0  0  0  0  0  0
   -7.5272    6.1014  -19.1829 H   0  0  0  0  0  0  0  0  0  0  0  0
   -7.7325    3.8140  -18.2157 H   0  0  0  0  0  0  0  0  0  0  0  0
   -6.5570   -1.1589  -12.2849 H   0  0  0  0  0  0  0  0  0  0  0  0
  -11.2705    0.6657  -10.3242 H   0  0  0  0  0  0  0  0  0  0  0  0
  -12.9484    1.1689   -8.6000 H   0  0  0  0  0  0  0  0  0  0  0  0
  -15.6140   -2.2510   -6.3870 H   0  0  0  0  0  0  0  0  0  0  0  0
  -16.5301   -0.5432   -5.3689 H   0  0  0  0  0  0  0  0  0  0  0  0
  -16.0045    0.4451   -6.7739 H   0  0  0  0  0  0  0  0  0  0  0  0
  -17.6278   -0.3241   -6.7739 H   0  0  0  0  0  0  0  0  0  0  0  0
  -14.8877   -3.3343   -8.8411 H   0  0  0  0  0  0  0  0  0  0  0  0
  1  2  1  0
  2  3  1  0
  3  4  1  0
  4  5  2  0
  4  6  1  0
  6  7  1  0
  7  8  1  0
  8  9  2  0
  9 10  1  0
 10 11  1  0
 11 12  2  0
 11 13  1  0
 13 14  1  0
 14 15  2  0
 15 16  1  0
 16 17  2  0
 17 18  1  0
 18 19  2  0
  9 20  1  0
 20 21  1  0
 20 22  2  0
 22 23  1  0
 23 24  1  0
  6 25  2  0
 25 26  1  0
 26 27  2  0
 27 28  1  0
 28 29  2  0
 29 30  1  0
 30 31  1  0
 29 32  1  0
 32 33  2  0
 33  3  1  0
 23  7  2  0
 33 26  1  0
 19 14  1  0
  1 34  1  0
  1 35  1  0
  1 36  1  0
  2 37  1  0
  2 38  1  0
  8 39  1  0
 10 40  1  0
 13 41  1  0
 15 42  1  0
 16 43  1  0
 17 44  1  0
 18 45  1  0
 19 46  1  0
 22 47  1  0
 25 48  1  0
 27 49  1  0
 30 50  1  0
 31 51  1  0
 31 52  1  0
 31 53  1  0
 32 54  1  0
M  END
>  <meeko>  (1) 
{"is_sidechain": false}

>  <vina_affinity_kcal_mol>  (1) 
-8.769

>  <pose_rank>  (1) 
1

$$$$

     RDKit          3D

 54 57  0  0  0  0  0  0  0  0999 V2000
   -6.7460   -0.5580  -13.1370 C   0  0  0  0  0  0  0  0  0  0  0  0
   -6.3290    0.8560  -13.5140 C   0  0  0  0  0  0  0  0  0  0  0  0
   -7.1770    1.4190  -14.5640 N   0  0  0  0  0  0  0  0  0  0  0  0
   -8.3730    2.0200  -14.1630 C   0  0  0  0  0  0  0  0  0  0  0  0
   -8.7200    2.1090  -12.9850 O   0  0  0  0  0  0  0  0  0  0  0  0
   -9.2550    2.5850  -15.2370 C   0  0  0  0  0  0  0  0  0  0  0  0
  -10.5290    3.2390  -14.8780 C   0  0  0  0  0  0  0  0  0  0  0  0
  -11.3790    2.5820  -13.9660 C   0  0  0  0  0  0  0  0  0  0  0  0
  -12.6010    3.1470  -13.5940 C   0  0  0  0  0  0  0  0  0  0  0  0
  -13.5110    2.5540  -12.6930 N   0  0  0  0  0  0  0  0  0  0  0  0
  -13.2110    1.7320  -11.6170 C   0  0  0  0  0  0  0  0  0  0  0  0
  -12.0770    1.4830  -11.2330 O   0  0  0  0  0  0  0  0  0  0  0  0
  -14.3790    1.2460  -11.0490 N   0  0  0  0  0  0  0  0  0  0  0  0
  -14.5080    0.4610   -9.8840 C   0  0  0  0  0  0  0  0  0  0  0  0
  -14.1270   -0.8780   -9.7990 C   0  0  0  0  0  0  0  0  0  0  0  0
  -14.2780   -1.5850   -8.6010 C   0  0  0  0  0  0  0  0  0  0  0  0
  -14.8080   -0.9550   -7.4770 C   0  0  0  0  0  0  0  0  0  0  0  0
  -15.1850    0.3830   -7.5490 C   0  0  0  0  0  0  0  0  0  0  0  0
  -15.0330    1.0880   -8.7460 C   0  0  0  0  0  0  0  0  0  0  0  0
  -12.9730    4.3690  -14.1660 C   0  0  0  0  0  0  0  0  0  0  0  0
  -14.1510    4.9210  -13.8300 F   0  0  0  0  0  0  0  0  0  0  0  0
  -12.1490    5.0400  -15.0620 C   0  0  0  0  0  0  0  0  0  0  0  0
  -10.9230    4.4760  -15.4150 C   0  0  0  0  0  0  0  0  0  0  0  0
   -9.8220    5.4580  -16.6150 Br  0  0  0  0  0  0  0  0  0  0  0  0
   -8.9070    2.5000  -16.5280 C   0  0  0  0  0  0  0  0  0  0  0  0
   -7.6690    1.8370  -16.9120 C   0  0  0  0  0  0  0  0  0  0  0  0
   -7.3050    1.7090  -18.2470 C   0  0  0  0  0  0  0  0  0  0  0  0
   -6.1780    1.0980  -18.6730 N   0  0  0  0  0  0  0  0  0  0  0  0
   -5.3640    0.5850  -17.7360 C   0  0  0  0  0  0  0  0  0  0  0  0
   -4.2230   -0.0560  -18.2220 N   0  0  0  0  0  0  0  0  0  0  0  0
   -3.6430   -1.0150  -17.2960 C   0  0  0  0  0  0  0  0  0  0  0  0
   -5.6540    0.6530  -16.3770 C   0  0  0  0  0  0  0  0  0  0  0  0
   -6.8200    1.2960  -15.9450 C   0  0  0  0  0  0  0  0  0  0  0  0
   -6.7738   -0.6523  -12.0414 H   0  0  0  0  0  0  0  0  0  0  0  0
   -7.7443   -0.7679  -13.5485 H   0  0  0  0  0  0  0  0  0  0  0  0
   -6.0214   -1.2760  -13.5485 H   0  0  0  0  0  0  0  0  0  0  0  0
   -6.3977    1.4957  -12.6218 H   0  0  0  0  0  0  0  0  0  0  0  0
   -5.2988    0.8141  -13.8972 H   0  0  0  0  0  0  0  0  0  0  0  0
  -11.0766    1.6130  -13.5422 H   0  0  0  0  0  0  0  0  0  0  0  0
  -14.4530    2.9220  -12.7340 H   0  0  0  0  0  0  0  0  0  0  0  0
  -15.2140    1.3510  -11.6040 H   0  0  0  0  0  0  0  0  0  0  0  0
  -13.7045   -1.3822  -10.6807 H   0  0  0  0  0  0  0  0  0  0  0  0
  -13.9773   -2.6417   -8.5464 H   0  0  0  0  0  0  0  0  0  0  0  0
  -14.9280   -1.5127   -6.5365 H   0  0  0  0  0  0  0  0  0  0  0  0
  -15.6025    0.8853   -6.6639 H   0  0  0  0  0  0  0  0  0  0  0  0
  -15.3286    2.1464   -8.7954 H   0  0  0  0  0  0  0  0  0  0  0  0
  -12.4603    6.0052  -15.4880 H   0  0  0  0  0  0  0  0  0  0  0  0
   -9.5592    2.9328  -17.3008 H   0  0  0  0  0  0  0  0  0  0  0  0
   -7.9785    2.1329  -19.0064 H   0  0  0  0  0  0  0  0  0  0  0  0
   -3.5750    0.7120  -18.4060 H   0  0  0  0  0  0  0  0  0  0  0  0
   -3.8386   -0.6916  -16.2630 H   0  0  0  0  0  0  0  0  0  0  0  0
   -4.0943   -2.0043  -17.4622 H   0  0  0  0  0  0  0  0  0  0  0  0
   -2.5573   -1.0747  -17.4622 H   0  0  0  0  0  0  0  0  0  0  0  0
   -4.9688    0.2026  -15.6438 H   0  0  0  0  0  0  0  0  0  0  0  0
  1  2  1  0
  2  3  1  0
  3  4  1  0
  4  5  2  0
  4  6  1  0
  6  7  1  0
  7  8  1  0
  8  9  2  0
  9 10  1  0
 10 11  1  0
 11 12  2  0
 11 13  1  0
 13 14  1  0
 14 15  2  0
 15 16  1  0
 16 17  2  0
 17 18  1  0
 18 19  2  0
  9 20  1  0
 20 21  1  0
 20 22  2  0
 22 23  1  0
 23 24  1  0
  6 25  2  0
 25 26  1  0
 26 27  2  0
 27 28  1  0
 28 29  2  0
 29 30  1  0
 30 31  1  0
 29 32  1  0
 32 33  2  0
 33  3  1  0
 23  7  2  0
 33 26  1  0
 19 14  1  0
  1 34  1  0
  1 35  1  0
  1 36  1  0
  2 37  1  0
  2 38  1  0
  8 39  1  0
 10 40  1  0
 13 41  1  0
 15 42  1  0
 16 43  1  0
 17 44  1  0
 18 45  1  0
 19 46  1  0
 22 47  1  0
 25 48  1  0
 27 49  1  0
 30 50  1  0
 31 51  1  0
 31 52  1  0
 31 53  1  0
 32 54  1  0
M  END
>  <meeko>  (2) 
{"is_sidechain": false}

>  <vina_affinity_kcal_mol>  (2) 
-8.574

>  <pose_rank>  (2) 
2

$$$$

     RDKit          3D

 54 57  0  0  0  0  0  0  0  0999 V2000
   -4.5580    0.2870  -17.9250 C   0  0  0  0  0  0  0  0  0  0  0  0
   -5.5040   -0.7210  -17.2900 C   0  0  0  0  0  0  0  0  0  0  0  0
   -6.0010   -0.2680  -15.9910 N   0  0  0  0  0  0  0  0  0  0  0  0
   -7.1900    0.4660  -15.9840 C   0  0  0  0  0  0  0  0  0  0  0  0
   -7.8300    0.7210  -17.0050 O   0  0  0  0  0  0  0  0  0  0  0  0
   -7.6970    0.9480  -14.6570 C   0  0  0  0  0  0  0  0  0  0  0  0
   -8.9500    1.7240  -14.5830 C   0  0  0  0  0  0  0  0  0  0  0  0
   -9.0250    2.9370  -15.2950 C   0  0  0  0  0  0  0  0  0  0  0  0
  -10.1820    3.7180  -15.2560 C   0  0  0  0  0  0  0  0  0  0  0  0
  -10.3360    4.9460  -15.9350 N   0  0  0  0  0  0  0  0  0  0  0  0
   -9.9460    5.2430  -17.2320 C   0  0  0  0  0  0  0  0  0  0  0  0
   -9.4910    4.4250  -18.0210 O   0  0  0  0  0  0  0  0  0  0  0  0
  -10.1520    6.5870  -17.4960 N   0  0  0  0  0  0  0  0  0  0  0  0
   -9.9760    7.2620  -18.7220 C   0  0  0  0  0  0  0  0  0  0  0  0
  -10.3440    6.7360  -19.9620 C   0  0  0  0  0  0  0  0  0  0  0  0
  -10.1440    7.4760  -21.1330 C   0  0  0  0  0  0  0  0  0  0  0  0
   -9.5790    8.7470  -21.0730 C   0  0  0  0  0  0  0  0  0  0  0  0
   -9.2150    9.2830  -19.8420 C   0  0  0  0  0  0  0  0  0  0  0  0
   -9.4150    8.5450  -18.6720 C   0  0  0  0  0  0  0  0  0  0  0  0
  -11.2570    3.2800  -14.4750 C   0  0  0  0  0  0  0  0  0  0  0  0
  -12.3730    4.0260  -14.4150 F   0  0  0  0  0  0  0  0  0  0  0  0
  -11.2110    2.0840  -13.7690 C   0  0  0  0  0  0  0  0  0  0  0  0
  -10.0570    1.3020  -13.8270 C   0  0  0  0  0  0  0  0  0  0  0  0
  -10.0670   -0.3420  -12.8710 Br  0  0  0  0  0  0  0  0  0  0  0  0
   -7.0200    0.6910  -13.5290 C   0  0  0  0  0  0  0  0  0  0  0  0
   -5.7680   -0.0480  -13.5770 C   0  0  0  0  0  0  0  0  0  0  0  0
   -5.0350   -0.2990  -12.4230 C   0  0  0  0  0  0  0  0  0  0  0  0
   -3.8620   -0.9680  -12.3970 N   0  0  0  0  0  0  0  0  0  0  0  0
   -3.3820   -1.4170  -13.5690 C   0  0  0  0  0  0  0  0  0  0  0  0
   -2.1580   -2.0840  -13.4980 N   0  0  0  0  0  0  0  0  0  0  0  0
   -1.1980   -1.6680  -14.5070 C   0  0  0  0  0  0  0  0  0  0  0  0
   -4.0400   -1.2020  -14.7760 C   0  0  0  0  0  0  0  0  0  0  0  0
   -5.2600   -0.5140  -14.7910 C   0  0  0  0  0  0  0  0  0  0  0  0
   -4.0337    0.8456  -17.1356 H   0  0  0  0  0  0  0  0  0  0  0  0
   -3.8232   -0.2425  -18.5493 H   0  0  0  0  0  0  0  0  0  0  0  0
   -5.1330    0.9868  -18.5493 H   0  0  0  0  0  0  0  0  0  0  0  0
   -6.3604   -0.8762  -17.9627 H   0  0  0  0  0  0  0  0  0  0  0  0
   -4.9459   -1.6556  -17.1315 H   0  0  0  0  0  0  0  0  0  0  0  0
   -8.1621    3.2730  -15.8887 H   0  0  0  0  0  0  0  0  0  0  0  0
  -10.9600    5.6050  -15.4870 H   0  0  0  0  0  0  0  0  0  0  0  0
  -10.3150    7.1730  -16.6910 H   0  0  0  0  0  0  0  0  0  0  0  0
  -10.7939    5.7338  -20.0189 H   0  0  0  0  0  0  0  0  0  0  0  0
  -10.4346    7.0514  -22.1053 H   0  0  0  0  0  0  0  0  0  0  0  0
   -9.4210    9.3251  -21.9954 H   0  0  0  0  0  0  0  0  0  0  0  0
   -8.7698   10.2875  -19.7894 H   0  0  0  0  0  0  0  0  0  0  0  0
   -9.1289    8.9761  -17.7013 H   0  0  0  0  0  0  0  0  0  0  0  0
  -12.0747    1.7575  -13.1711 H   0  0  0  0  0  0  0  0  0  0  0  0
   -7.4129    1.0405  -12.5628 H   0  0  0  0  0  0  0  0  0  0  0  0
   -5.4366    0.0715  -11.4683 H   0  0  0  0  0  0  0  0  0  0  0  0
   -2.4110   -3.0660  -13.6170 H   0  0  0  0  0  0  0  0  0  0  0  0
   -0.2953   -1.2768  -14.0150 H   0  0  0  0  0  0  0  0  0  0  0  0
   -0.9290   -2.5303  -15.1348 H   0  0  0  0  0  0  0  0  0  0  0  0
   -1.6432   -0.8821  -15.1348 H   0  0  0  0  0  0  0  0  0  0  0  0
   -3.6034   -1.5713  -15.7157 H   0  0  0  0  0  0  0  0  0  0  0  0
  1  2  1  0
  2  3  1  0
  3  4  1  0
  4  5  2  0
  4  6  1  0
  6  7  1  0
  7  8  1  0
  8  9  2  0
  9 10  1  0
 10 11  1  0
 11 12  2  0
 11 13  1  0
 13 14  1  0
 14 15  2  0
 15 16  1  0
 16 17  2  0
 17 18  1  0
 18 19  2  0
  9 20  1  0
 20 21  1  0
 20 22  2  0
 22 23  1  0
 23 24  1  0
  6 25  2  0
 25 26  1  0
 26 27  2  0
 27 28  1  0
 28 29  2  0
 29 30  1  0
 30 31  1  0
 29 32  1  0
 32 33  2  0
 33  3  1  0
 23  7  2  0
 33 26  1  0
 19 14  1  0
  1 34  1  0
  1 35  1  0
  1 36  1  0
  2 37  1  0
  2 38  1  0
  8 39  1  0
 10 40  1  0
 13 41  1  0
 15 42  1  0
 16 43  1  0
 17 44  1  0
 18 45  1  0
 19 46  1  0
 22 47  1  0
 25 48  1  0
 27 49  1  0
 30 50  1  0
 31 51  1  0
 31 52  1  0
 31 53  1  0
 32 54  1  0
M  END
>  <meeko>  (3) 
{"is_sidechain": false}

>  <vina_affinity_kcal_mol>  (3) 
-8.495

>  <pose_rank>  (3) 
3

$$$$

     RDKit          3D

 54 57  0  0  0  0  0  0  0  0999 V2000
   -6.7580    1.3020  -15.8620 C   0  0  0  0  0  0  0  0  0  0  0  0
   -8.1430    1.2070  -16.4850 C   0  0  0  0  0  0  0  0  0  0  0  0
   -9.0980    2.1130  -15.8470 N   0  0  0  0  0  0  0  0  0  0  0  0
   -9.8270    1.6120  -14.7660 C   0  0  0  0  0  0  0  0  0  0  0  0
   -9.6840    0.4700  -14.3270 O   0  0  0  0  0  0  0  0  0  0  0  0
  -10.8190    2.5310  -14.1160 C   0  0  0  0  0  0  0  0  0  0  0  0
  -11.6160    2.0640  -12.9650 C   0  0  0  0  0  0  0  0  0  0  0  0
  -11.0420    1.1080  -12.1040 C   0  0  0  0  0  0  0  0  0  0  0  0
  -11.7510    0.6220  -11.0030 C   0  0  0  0  0  0  0  0  0  0  0  0
  -11.2520   -0.3370  -10.0960 N   0  0  0  0  0  0  0  0  0  0  0  0
  -11.1180   -1.7010  -10.3050 C   0  0  0  0  0  0  0  0  0  0  0  0
  -11.3270   -2.2600  -11.3740 O   0  0  0  0  0  0  0  0  0  0  0  0
  -10.7120   -2.3250   -9.1360 N   0  0  0  0  0  0  0  0  0  0  0  0
  -10.3710   -3.6830   -8.9580 C   0  0  0  0  0  0  0  0  0  0  0  0
  -11.2610   -4.7420   -9.1450 C   0  0  0  0  0  0  0  0  0  0  0  0
  -10.8400   -6.0630   -8.9580 C   0  0  0  0  0  0  0  0  0  0  0  0
   -9.5260   -6.3350   -8.5870 C   0  0  0  0  0  0  0  0  0  0  0  0
   -8.6280   -5.2870   -8.4050 C   0  0  0  0  0  0  0  0  0  0  0  0
   -9.0490   -3.9670   -8.5920 C   0  0  0  0  0  0  0  0  0  0  0  0
  -13.0530    1.0890  -10.7870 C   0  0  0  0  0  0  0  0  0  0  0  0
  -13.7540    0.6220   -9.7410 F   0  0  0  0  0  0  0  0  0  0  0  0
  -13.6380    2.0370  -11.6180 C   0  0  0  0  0  0  0  0  0  0  0  0
  -12.9160    2.5290  -12.7060 C   0  0  0  0  0  0  0  0  0  0  0  0
  -13.7540    3.8520  -13.7850 Br  0  0  0  0  0  0  0  0  0  0  0  0
  -11.0000    3.7790  -14.5720 C   0  0  0  0  0  0  0  0  0  0  0  0
  -10.2470    4.2560  -15.7230 C   0  0  0  0  0  0  0  0  0  0  0  0
  -10.4430    5.5350  -16.2310 C   0  0  0  0  0  0  0  0  0  0  0  0
   -9.7870    6.0370  -17.3000 N   0  0  0  0  0  0  0  0  0  0  0  0
   -8.8890    5.2410  -17.9010 C   0  0  0  0  0  0  0  0  0  0  0  0
   -8.2500    5.7920  -19.0130 N   0  0  0  0  0  0  0  0  0  0  0  0
   -9.0400    6.7900  -19.7150 C   0  0  0  0  0  0  0  0  0  0  0  0
   -8.6360    3.9420  -17.4700 C   0  0  0  0  0  0  0  0  0  0  0  0
   -9.3150    3.4330  -16.3570 C   0  0  0  0  0  0  0  0  0  0  0  0
   -6.8479    1.2958  -14.7657 H   0  0  0  0  0  0  0  0  0  0  0  0
   -6.1510    0.4434  -16.1850 H   0  0  0  0  0  0  0  0  0  0  0  0
   -6.2739    2.2355  -16.1850 H   0  0  0  0  0  0  0  0  0  0  0  0
   -8.0699    1.4632  -17.5522 H   0  0  0  0  0  0  0  0  0  0  0  0
   -8.5071    0.1785  -16.3448 H   0  0  0  0  0  0  0  0  0  0  0  0
  -10.0242    0.7402  -12.3010 H   0  0  0  0  0  0  0  0  0  0  0  0
  -10.7780    0.0460   -9.2880 H   0  0  0  0  0  0  0  0  0  0  0  0
  -10.8000   -1.7800   -8.2930 H   0  0  0  0  0  0  0  0  0  0  0  0
  -12.3002   -4.5365   -9.4413 H   0  0  0  0  0  0  0  0  0  0  0  0
  -11.5501   -6.8902   -9.1047 H   0  0  0  0  0  0  0  0  0  0  0  0
   -9.1985   -7.3745   -8.4382 H   0  0  0  0  0  0  0  0  0  0  0  0
   -7.5881   -5.4972   -8.1143 H   0  0  0  0  0  0  0  0  0  0  0  0
   -8.3346   -3.1427   -8.4502 H   0  0  0  0  0  0  0  0  0  0  0  0
  -14.6589    2.3955  -11.4202 H   0  0  0  0  0  0  0  0  0  0  0  0
  -11.7203    4.4450  -14.0744 H   0  0  0  0  0  0  0  0  0  0  0  0
  -11.1799    6.1801  -15.7302 H   0  0  0  0  0  0  0  0  0  0  0  0
   -8.0650    4.9860  -19.6110 H   0  0  0  0  0  0  0  0  0  0  0  0
   -9.5501    7.4345  -18.9839 H   0  0  0  0  0  0  0  0  0  0  0  0
   -8.3796    7.4028  -20.3461 H   0  0  0  0  0  0  0  0  0  0  0  0
   -9.7881    6.2879  -20.3461 H   0  0  0  0  0  0  0  0  0  0  0  0
   -7.9042    3.3170  -18.0028 H   0  0  0  0  0  0  0  0  0  0  0  0
  1  2  1  0
  2  3  1  0
  3  4  1  0
  4  5  2  0
  4  6  1  0
  6  7  1  0
  7  8  1  0
  8  9  2  0
  9 10  1  0
 10 11  1  0
 11 12  2  0
 11 13  1  0
 13 14  1  0
 14 15  2  0
 15 16  1  0
 16 17  2  0
 17 18  1  0
 18 19  2  0
  9 20  1  0
 20 21  1  0
 20 22  2  0
 22 23  1  0
 23 24  1  0
  6 25  2  0
 25 26  1  0
 26 27  2  0
 27 28  1  0
 28 29  2  0
 29 30  1  0
 30 31  1  0
 29 32  1  0
 32 33  2  0
 33  3  1  0
 23  7  2  0
 33 26  1  0
 19 14  1  0
  1 34  1  0
  1 35  1  0
  1 36  1  0
  2 37  1  0
  2 38  1  0
  8 39  1  0
 10 40  1  0
 13 41  1  0
 15 42  1  0
 16 43  1  0
 17 44  1  0
 18 45  1  0
 19 46  1  0
 22 47  1  0
 25 48  1  0
 27 49  1  0
 30 50  1  0
 31 51  1  0
 31 52  1  0
 31 53  1  0
 32 54  1  0
M  END
>  <meeko>  (4) 
{"is_sidechain": false}

>  <vina_affinity_kcal_mol>  (4) 
-8.332

>  <pose_rank>  (4) 
4

$$$$

     RDKit          3D

 54 57  0  0  0  0  0  0  0  0999 V2000
   -2.9330    0.5140  -18.3300 C   0  0  0  0  0  0  0  0  0  0  0  0
   -3.0220    0.3830  -16.8160 C   0  0  0  0  0  0  0  0  0  0  0  0
   -4.3020   -0.1790  -16.3870 N   0  0  0  0  0  0  0  0  0  0  0  0
   -5.3210    0.7240  -16.0730 C   0  0  0  0  0  0  0  0  0  0  0  0
   -5.1910    1.9450  -16.1630 O   0  0  0  0  0  0  0  0  0  0  0  0
   -6.6320    0.1540  -15.6170 C   0  0  0  0  0  0  0  0  0  0  0  0
   -7.7510    1.0550  -15.2760 C   0  0  0  0  0  0  0  0  0  0  0  0
   -8.2380    1.9180  -16.2780 C   0  0  0  0  0  0  0  0  0  0  0  0
   -9.2880    2.7990  -16.0130 C   0  0  0  0  0  0  0  0  0  0  0  0
   -9.8310    3.6970  -16.9560 N   0  0  0  0  0  0  0  0  0  0  0  0
   -9.2800    4.8920  -17.3920 C   0  0  0  0  0  0  0  0  0  0  0  0
   -8.1650    5.2920  -17.0830 O   0  0  0  0  0  0  0  0  0  0  0  0
  -10.1700    5.5510  -18.2250 N   0  0  0  0  0  0  0  0  0  0  0  0
   -9.9510    6.7430  -18.9480 C   0  0  0  0  0  0  0  0  0  0  0  0
   -9.4830    7.9280  -18.3770 C   0  0  0  0  0  0  0  0  0  0  0  0
   -9.2820    9.0650  -19.1670 C   0  0  0  0  0  0  0  0  0  0  0  0
   -9.5440    9.0250  -20.5340 C   0  0  0  0  0  0  0  0  0  0  0  0
  -10.0040    7.8470  -21.1150 C   0  0  0  0  0  0  0  0  0  0  0  0
  -10.2040    6.7110  -20.3260 C   0  0  0  0  0  0  0  0  0  0  0  0
   -9.8320    2.8210  -14.7230 C   0  0  0  0  0  0  0  0  0  0  0  0
  -10.8350    3.6710  -14.4470 F   0  0  0  0  0  0  0  0  0  0  0  0
   -9.3740    1.9750  -13.7200 C   0  0  0  0  0  0  0  0  0  0  0  0
   -8.3350    1.0870  -13.9980 C   0  0  0  0  0  0  0  0  0  0  0  0
   -7.7760   -0.0720  -12.5980 Br  0  0  0  0  0  0  0  0  0  0  0  0
   -6.8040   -1.1700  -15.5050 C   0  0  0  0  0  0  0  0  0  0  0  0
   -5.7090   -2.0800  -15.8080 C   0  0  0  0  0  0  0  0  0  0  0  0
   -5.8560   -3.4550  -15.6680 C   0  0  0  0  0  0  0  0  0  0  0  0
   -4.8800   -4.3540  -15.9220 N   0  0  0  0  0  0  0  0  0  0  0  0
   -3.6960   -3.8770  -16.3370 C   0  0  0  0  0  0  0  0  0  0  0  0
   -2.7110   -4.8390  -16.5670 N   0  0  0  0  0  0  0  0  0  0  0  0
   -3.1690   -5.9830  -17.3370 C   0  0  0  0  0  0  0  0  0  0  0  0
   -3.4520   -2.5150  -16.4930 C   0  0  0  0  0  0  0  0  0  0  0  0
   -4.4730   -1.5920  -16.2350 C   0  0  0  0  0  0  0  0  0  0  0  0
   -2.3319    1.3987  -18.5868 H   0  0  0  0  0  0  0  0  0  0  0  0
   -2.4585   -0.3858  -18.7486 H   0  0  0  0  0  0  0  0  0  0  0  0
   -3.9443    0.6237  -18.7486 H   0  0  0  0  0  0  0  0  0  0  0  0
   -2.2116   -0.2747  -16.4686 H   0  0  0  0  0  0  0  0  0  0  0  0
   -2.9320    1.3901  -16.3829 H   0  0  0  0  0  0  0  0  0  0  0  0
   -7.7856    1.8972  -17.2804 H   0  0  0  0  0  0  0  0  0  0  0  0
  -10.6060    3.3320  -17.4950 H   0  0  0  0  0  0  0  0  0  0  0  0
  -11.1210    5.2170  -18.2060 H   0  0  0  0  0  0  0  0  0  0  0  0
   -9.2708    7.9679  -17.2984 H   0  0  0  0  0  0  0  0  0  0  0  0
   -8.9155    9.9943  -18.7064 H   0  0  0  0  0  0  0  0  0  0  0  0
   -9.3880    9.9212  -21.1524 H   0  0  0  0  0  0  0  0  0  0  0  0
  -10.2101    7.8101  -22.1949 H   0  0  0  0  0  0  0  0  0  0  0  0
  -10.5639    5.7817  -20.7916 H   0  0  0  0  0  0  0  0  0  0  0  0
   -9.8261    2.0054  -12.7176 H   0  0  0  0  0  0  0  0  0  0  0  0
   -7.7764   -1.5709  -15.1829 H   0  0  0  0  0  0  0  0  0  0  0  0
   -6.8304   -3.8360  -15.3283 H   0  0  0  0  0  0  0  0  0  0  0  0
   -2.4240   -5.1220  -15.6280 H   0  0  0  0  0  0  0  0  0  0  0  0
   -3.4888   -6.7819  -16.6518 H   0  0  0  0  0  0  0  0  0  0  0  0
   -4.0162   -5.6828  -17.9711 H   0  0  0  0  0  0  0  0  0  0  0  0
   -2.3486   -6.3504  -17.9711 H   0  0  0  0  0  0  0  0  0  0  0  0
   -2.4609   -2.1654  -16.8177 H   0  0  0  0  0  0  0  0  0  0  0  0
  1  2  1  0
  2  3  1  0
  3  4  1  0
  4  5  2  0
  4  6  1  0
  6  7  1  0
  7  8  1  0
  8  9  2  0
  9 10  1  0
 10 11  1  0
 11 12  2  0
 11 13  1  0
 13 14  1  0
 14 15  2  0
 15 16  1  0
 16 17  2  0
 17 18  1  0
 18 19  2  0
  9 20  1  0
 20 21  1  0
 20 22  2  0
 22 23  1  0
 23 24  1  0
  6 25  2  0
 25 26  1  0
 26 27  2  0
 27 28  1  0
 28 29  2  0
 29 30  1  0
 30 31  1  0
 29 32  1  0
 32 33  2  0
 33  3  1  0
 23  7  2  0
 33 26  1  0
 19 14  1  0
  1 34  1  0
  1 35  1  0
  1 36  1  0
  2 37  1  0
  2 38  1  0
  8 39  1  0
 10 40  1  0
 13 41  1  0
 15 42  1  0
 16 43  1  0
 17 44  1  0
 18 45  1  0
 19 46  1  0
 22 47  1  0
 25 48  1  0
 27 49  1  0
 30 50  1  0
 31 51  1  0
 31 52  1  0
 31 53  1  0
 32 54  1  0
M  END
>  <meeko>  (5) 
{"is_sidechain": false}

>  <vina_affinity_kcal_mol>  (5) 
-8.309

>  <pose_rank>  (5) 
5

$$$$

     RDKit          3D

 54 57  0  0  0  0  0  0  0  0999 V2000
   -5.0350   -3.7430  -15.2090 C   0  0  0  0  0  0  0  0  0  0  0  0
   -5.4050   -2.9810  -16.4740 C   0  0  0  0  0  0  0  0  0  0  0  0
   -5.2600   -1.5350  -16.3080 N   0  0  0  0  0  0  0  0  0  0  0  0
   -6.3560   -0.8400  -15.7890 C   0  0  0  0  0  0  0  0  0  0  0  0
   -7.4060   -1.3900  -15.4540 O   0  0  0  0  0  0  0  0  0  0  0  0
   -6.2190    0.6450  -15.6310 C   0  0  0  0  0  0  0  0  0  0  0  0
   -7.3380    1.4360  -15.0820 C   0  0  0  0  0  0  0  0  0  0  0  0
   -7.9590    2.3810  -15.9230 C   0  0  0  0  0  0  0  0  0  0  0  0
   -9.0170    3.1650  -15.4580 C   0  0  0  0  0  0  0  0  0  0  0  0
   -9.6880    4.1360  -16.2320 N   0  0  0  0  0  0  0  0  0  0  0  0
   -9.1270    5.0240  -17.1370 C   0  0  0  0  0  0  0  0  0  0  0  0
   -7.9500    5.0180  -17.4710 O   0  0  0  0  0  0  0  0  0  0  0  0
  -10.0920    5.9030  -17.6020 N   0  0  0  0  0  0  0  0  0  0  0  0
   -9.9490    6.8890  -18.6000 C   0  0  0  0  0  0  0  0  0  0  0  0
   -9.4820    8.1820  -18.3590 C   0  0  0  0  0  0  0  0  0  0  0  0
   -9.3590    9.0990  -19.4100 C   0  0  0  0  0  0  0  0  0  0  0  0
   -9.6970    8.7280  -20.7080 C   0  0  0  0  0  0  0  0  0  0  0  0
  -10.1560    7.4390  -20.9610 C   0  0  0  0  0  0  0  0  0  0  0  0
  -10.2790    6.5240  -19.9120 C   0  0  0  0  0  0  0  0  0  0  0  0
   -9.4330    3.0060  -14.1310 C   0  0  0  0  0  0  0  0  0  0  0  0
  -10.4410    3.7600  -13.6630 F   0  0  0  0  0  0  0  0  0  0  0  0
   -8.8420    2.0750  -13.2850 C   0  0  0  0  0  0  0  0  0  0  0  0
   -7.7970    1.2850  -13.7630 C   0  0  0  0  0  0  0  0  0  0  0  0
   -7.0540    0.0030  -12.5700 Br  0  0  0  0  0  0  0  0  0  0  0  0
   -5.0910    1.2730  -15.9900 C   0  0  0  0  0  0  0  0  0  0  0  0
   -3.9820    0.5220  -16.5580 C   0  0  0  0  0  0  0  0  0  0  0  0
   -2.8150    1.1570  -16.9660 C   0  0  0  0  0  0  0  0  0  0  0  0
   -1.7530    0.5230  -17.5100 N   0  0  0  0  0  0  0  0  0  0  0  0
   -1.8420   -0.8080  -17.6610 C   0  0  0  0  0  0  0  0  0  0  0  0
   -0.7310   -1.4190  -18.2460 N   0  0  0  0  0  0  0  0  0  0  0  0
   -0.7190   -1.3590  -19.6980 C   0  0  0  0  0  0  0  0  0  0  0  0
   -2.9760   -1.5270  -17.2940 C   0  0  0  0  0  0  0  0  0  0  0  0
   -4.0670   -0.8610  -16.7230 C   0  0  0  0  0  0  0  0  0  0  0  0
   -5.3223   -3.1513  -14.3273 H   0  0  0  0  0  0  0  0  0  0  0  0
   -5.5656   -4.7064  -15.1928 H   0  0  0  0  0  0  0  0  0  0  0  0
   -3.9498   -3.9218  -15.1928 H   0  0  0  0  0  0  0  0  0  0  0  0
   -4.7482   -3.3117  -17.2921 H   0  0  0  0  0  0  0  0  0  0  0  0
   -6.4608   -3.1917  -16.6996 H   0  0  0  0  0  0  0  0  0  0  0  0
   -7.6063    2.5025  -16.9578 H   0  0  0  0  0  0  0  0  0  0  0  0
  -10.6960    4.0380  -16.2570 H   0  0  0  0  0  0  0  0  0  0  0  0
  -10.9510    5.9330  -17.0740 H   0  0  0  0  0  0  0  0  0  0  0  0
   -9.2088    8.4826  -17.3368 H   0  0  0  0  0  0  0  0  0  0  0  0
   -8.9937   10.1169  -19.2088 H   0  0  0  0  0  0  0  0  0  0  0  0
   -9.6016    9.4513  -21.5312 H   0  0  0  0  0  0  0  0  0  0  0  0
  -10.4218    7.1405  -21.9858 H   0  0  0  0  0  0  0  0  0  0  0  0
  -10.6391    5.5053  -20.1186 H   0  0  0  0  0  0  0  0  0  0  0  0
   -9.1949    1.9625  -12.2492 H   0  0  0  0  0  0  0  0  0  0  0  0
   -5.0032    2.3611  -15.8546 H   0  0  0  0  0  0  0  0  0  0  0  0
   -2.7517    2.2476  -16.8376 H   0  0  0  0  0  0  0  0  0  0  0  0
   -0.7870   -2.3850  -17.9200 H   0  0  0  0  0  0  0  0  0  0  0  0
   -0.5128   -0.3278  -20.0207 H   0  0  0  0  0  0  0  0  0  0  0  0
    0.0631   -2.0280  -20.0862 H   0  0  0  0  0  0  0  0  0  0  0  0
   -1.6983   -1.6757  -20.0862 H   0  0  0  0  0  0  0  0  0  0  0  0
   -3.0148   -2.6149  -17.4521 H   0  0  0  0  0  0  0  0  0  0  0  0
  1  2  1  0
  2  3  1  0
  3  4  1  0
  4  5  2  0
  4  6  1  0
  6  7  1  0
  7  8  1  0
  8  9  2  0
  9 10  1  0
 10 11  1  0
 11 12  2  0
 11 13  1  0
 13 14  1  0
 14 15  2  0
 15 16  1  0
 16 17  2  0
 17 18  1  0
 18 19  2  0
  9 20  1  0
 20 21  1  0
 20 22  2  0
 22 23  1  0
 23 24  1  0
  6 25  2  0
 25 26  1  0
 26 27  2  0
 27 28  1  0
 28 29  2  0
 29 30  1  0
 30 31  1  0
 29 32  1  0
 32 33  2  0
 33  3  1  0
 23  7  2  0
 33 26  1  0
 19 14  1  0
  1 34  1  0
  1 35  1  0
  1 36  1  0
  2 37  1  0
  2 38  1  0
  8 39  1  0
 10 40  1  0
 13 41  1  0
 15 42  1  0
 16 43  1  0
 17 44  1  0
 18 45  1  0
 19 46  1  0
 22 47  1  0
 25 48  1  0
 27 49  1  0
 30 50  1  0
 31 51  1  0
 31 52  1  0
 31 53  1  0
 32 54  1  0
M  END
>  <meeko>  (6) 
{"is_sidechain": false}

>  <vina_affinity_kcal_mol>  (6) 
-7.996

>  <pose_rank>  (6) 
6

$$$$

     RDKit          3D

 54 57  0  0  0  0  0  0  0  0999 V2000
   -7.1460    0.0200  -15.3980 C   0  0  0  0  0  0  0  0  0  0  0  0
   -8.5110    0.1920  -16.0460 C   0  0  0  0  0  0  0  0  0  0  0  0
   -9.2990    1.2410  -15.4000 N   0  0  0  0  0  0  0  0  0  0  0  0
  -10.1160    0.8590  -14.3330 C   0  0  0  0  0  0  0  0  0  0  0  0
  -10.1800   -0.2970  -13.9130 O   0  0  0  0  0  0  0  0  0  0  0  0
  -10.9390    1.9270  -13.6750 C   0  0  0  0  0  0  0  0  0  0  0  0
  -11.8180    1.5880  -12.5380 C   0  0  0  0  0  0  0  0  0  0  0  0
  -11.3520    0.6520  -11.5940 C   0  0  0  0  0  0  0  0  0  0  0  0
  -12.1420    0.2860  -10.5020 C   0  0  0  0  0  0  0  0  0  0  0  0
  -11.7530   -0.6460   -9.5160 N   0  0  0  0  0  0  0  0  0  0  0  0
  -11.1880   -0.3730   -8.2790 C   0  0  0  0  0  0  0  0  0  0  0  0
  -11.0390    0.7520   -7.8210 O   0  0  0  0  0  0  0  0  0  0  0  0
  -10.8290   -1.5530   -7.6490 N   0  0  0  0  0  0  0  0  0  0  0  0
  -10.3170   -1.7110   -6.3430 C   0  0  0  0  0  0  0  0  0  0  0  0
   -8.9560   -1.7770   -6.0420 C   0  0  0  0  0  0  0  0  0  0  0  0
   -8.5290   -1.9230   -4.7170 C   0  0  0  0  0  0  0  0  0  0  0  0
   -9.4600   -2.0020   -3.6850 C   0  0  0  0  0  0  0  0  0  0  0  0
  -10.8190   -1.9310   -3.9740 C   0  0  0  0  0  0  0  0  0  0  0  0
  -11.2450   -1.7840   -5.2960 C   0  0  0  0  0  0  0  0  0  0  0  0
  -13.4150    0.8530  -10.3790 C   0  0  0  0  0  0  0  0  0  0  0  0
  -14.1940    0.5010   -9.3420 F   0  0  0  0  0  0  0  0  0  0  0  0
  -13.8940    1.7840  -11.2930 C   0  0  0  0  0  0  0  0  0  0  0  0
  -13.0920    2.1560  -12.3720 C   0  0  0  0  0  0  0  0  0  0  0  0
  -13.7860    3.4620  -13.5680 Br  0  0  0  0  0  0  0  0  0  0  0  0
  -10.8950    3.1940  -14.1110 C   0  0  0  0  0  0  0  0  0  0  0  0
  -10.0570    3.5500  -15.2470 C   0  0  0  0  0  0  0  0  0  0  0  0
  -10.0210    4.8510  -15.7350 C   0  0  0  0  0  0  0  0  0  0  0  0
   -9.2760    5.2480  -16.7890 N   0  0  0  0  0  0  0  0  0  0  0  0
   -8.5250    4.3160  -17.3970 C   0  0  0  0  0  0  0  0  0  0  0  0
   -7.7870    4.7650  -18.4950 N   0  0  0  0  0  0  0  0  0  0  0  0
   -8.3700    5.9120  -19.1700 C   0  0  0  0  0  0  0  0  0  0  0  0
   -8.5070    2.9860  -16.9870 C   0  0  0  0  0  0  0  0  0  0  0  0
   -9.2770    2.5870  -15.8880 C   0  0  0  0  0  0  0  0  0  0  0  0
   -7.2553    0.0338  -14.3035 H   0  0  0  0  0  0  0  0  0  0  0  0
   -6.7100   -0.9402  -15.7109 H   0  0  0  0  0  0  0  0  0  0  0  0
   -6.4854    0.8420  -15.7109 H   0  0  0  0  0  0  0  0  0  0  0  0
   -8.3703    0.4554  -17.1047 H   0  0  0  0  0  0  0  0  0  0  0  0
   -9.0581   -0.7564  -15.9396 H   0  0  0  0  0  0  0  0  0  0  0  0
  -10.3549    0.2044  -11.7183 H   0  0  0  0  0  0  0  0  0  0  0  0
  -12.0950   -1.5880   -9.6600 H   0  0  0  0  0  0  0  0  0  0  0  0
  -10.8030   -2.3750   -8.2330 H   0  0  0  0  0  0  0  0  0  0  0  0
   -8.2138   -1.7139   -6.8514 H   0  0  0  0  0  0  0  0  0  0  0  0
   -7.4539   -1.9755   -4.4903 H   0  0  0  0  0  0  0  0  0  0  0  0
   -9.1223   -2.1201   -2.6448 H   0  0  0  0  0  0  0  0  0  0  0  0
  -11.5580   -1.9906   -3.1614 H   0  0  0  0  0  0  0  0  0  0  0  0
  -12.3208   -1.7249   -5.5175 H   0  0  0  0  0  0  0  0  0  0  0  0
  -14.8948    2.2228  -11.1669 H   0  0  0  0  0  0  0  0  0  0  0  0
  -11.4943    3.9675  -13.6085 H   0  0  0  0  0  0  0  0  0  0  0  0
  -10.6400    5.6068  -15.2294 H   0  0  0  0  0  0  0  0  0  0  0  0
   -7.7560    3.9530  -19.1140 H   0  0  0  0  0  0  0  0  0  0  0  0
   -8.7354    6.6309  -18.4220 H   0  0  0  0  0  0  0  0  0  0  0  0
   -7.6073    6.3937  -19.7995 H   0  0  0  0  0  0  0  0  0  0  0  0
   -9.2086    5.5797  -19.7995 H   0  0  0  0  0  0  0  0  0  0  0  0
   -7.8899    2.2510  -17.5246 H   0  0  0  0  0  0  0  0  0  0  0  0
  1  2  1  0
  2  3  1  0
  3  4  1  0
  4  5  2  0
  4  6  1  0
  6  7  1  0
  7  8  1  0
  8  9  2  0
  9 10  1  0
 10 11  1  0
 11 12  2  0
 11 13  1  0
 13 14  1  0
 14 15  2  0
 15 16  1  0
 16 17  2  0
 17 18  1  0
 18 19  2  0
  9 20  1  0
 20 21  1  0
 20 22  2  0
 22 23  1  0
 23 24  1  0
  6 25  2  0
 25 26  1  0
 26 27  2  0
 27 28  1  0
 28 29  2  0
 29 30  1  0
 30 31  1  0
 29 32  1  0
 32 33  2  0
 33  3  1  0
 23  7  2  0
 33 26  1  0
 19 14  1  0
  1 34  1  0
  1 35  1  0
  1 36  1  0
  2 37  1  0
  2 38  1  0
  8 39  1  0
 10 40  1  0
 13 41  1  0
 15 42  1  0
 16 43  1  0
 17 44  1  0
 18 45  1  0
 19 46  1  0
 22 47  1  0
 25 48  1  0
 27 49  1  0
 30 50  1  0
 31 51  1  0
 31 52  1  0
 31 53  1  0
 32 54  1  0
M  END
>  <meeko>  (7) 
{"is_sidechain": false}

>  <vina_affinity_kcal_mol>  (7) 
-7.82

>  <pose_rank>  (7) 
7

$$$$

     RDKit          3D

 54 57  0  0  0  0  0  0  0  0999 V2000
  -12.9230    5.6460  -16.6060 C   0  0  0  0  0  0  0  0  0  0  0  0
  -11.6580    5.9900  -15.8340 C   0  0  0  0  0  0  0  0  0  0  0  0
  -10.5140    5.1880  -16.2650 N   0  0  0  0  0  0  0  0  0  0  0  0
  -10.1930    4.0690  -15.4920 C   0  0  0  0  0  0  0  0  0  0  0  0
  -10.8350    3.7310  -14.4970 O   0  0  0  0  0  0  0  0  0  0  0  0
   -9.0110    3.2500  -15.9190 C   0  0  0  0  0  0  0  0  0  0  0  0
   -8.6230    2.0530  -15.1480 C   0  0  0  0  0  0  0  0  0  0  0  0
   -9.4020    1.7040  -14.0260 C   0  0  0  0  0  0  0  0  0  0  0  0
   -9.0800    0.5870  -13.2530 C   0  0  0  0  0  0  0  0  0  0  0  0
   -9.8030    0.1730  -12.1140 N   0  0  0  0  0  0  0  0  0  0  0  0
  -10.6240   -0.9390  -11.9990 C   0  0  0  0  0  0  0  0  0  0  0  0
  -10.7580   -1.7910  -12.8670 O   0  0  0  0  0  0  0  0  0  0  0  0
  -11.2580   -0.9380  -10.7670 N   0  0  0  0  0  0  0  0  0  0  0  0
  -12.0930   -1.9390  -10.2270 C   0  0  0  0  0  0  0  0  0  0  0  0
  -13.4490   -1.7570   -9.9490 C   0  0  0  0  0  0  0  0  0  0  0  0
  -14.2120   -2.8060   -9.4240 C   0  0  0  0  0  0  0  0  0  0  0  0
  -13.6260   -4.0450   -9.1770 C   0  0  0  0  0  0  0  0  0  0  0  0
  -12.2770   -4.2390   -9.4580 C   0  0  0  0  0  0  0  0  0  0  0  0
  -11.5150   -3.1910   -9.9830 C   0  0  0  0  0  0  0  0  0  0  0  0
   -7.9530   -0.1660  -13.6030 C   0  0  0  0  0  0  0  0  0  0  0  0
   -7.6200   -1.2360  -12.8620 F   0  0  0  0  0  0  0  0  0  0  0  0
   -7.1730    0.1540  -14.7090 C   0  0  0  0  0  0  0  0  0  0  0  0
   -7.5120    1.2620  -15.4850 C   0  0  0  0  0  0  0  0  0  0  0  0
   -6.4310    1.6260  -17.0070 Br  0  0  0  0  0  0  0  0  0  0  0  0
   -8.2890    3.5950  -16.9950 C   0  0  0  0  0  0  0  0  0  0  0  0
   -8.6330    4.7850  -17.7580 C   0  0  0  0  0  0  0  0  0  0  0  0
   -7.8790    5.1780  -18.8580 C   0  0  0  0  0  0  0  0  0  0  0  0
   -8.1360    6.2750  -19.6030 N   0  0  0  0  0  0  0  0  0  0  0  0
   -9.1900    7.0280  -19.2490 C   0  0  0  0  0  0  0  0  0  0  0  0
   -9.4050    8.1630  -20.0330 N   0  0  0  0  0  0  0  0  0  0  0  0
  -10.0300    7.8860  -21.3160 C   0  0  0  0  0  0  0  0  0  0  0  0
   -9.9930    6.7200  -18.1550 C   0  0  0  0  0  0  0  0  0  0  0  0
   -9.7240    5.5760  -17.3950 C   0  0  0  0  0  0  0  0  0  0  0  0
  -13.7357    5.4250  -15.8984 H   0  0  0  0  0  0  0  0  0  0  0  0
  -13.2097    6.4988  -17.2389 H   0  0  0  0  0  0  0  0  0  0  0  0
  -12.7383    4.7655  -17.2389 H   0  0  0  0  0  0  0  0  0  0  0  0
  -11.4248    7.0534  -15.9914 H   0  0  0  0  0  0  0  0  0  0  0  0
  -11.8412    5.7740  -14.7711 H   0  0  0  0  0  0  0  0  0  0  0  0
  -10.2734    2.3188  -13.7566 H   0  0  0  0  0  0  0  0  0  0  0  0
   -9.5420    0.6340  -11.2520 H   0  0  0  0  0  0  0  0  0  0  0  0
  -11.2280   -0.0680  -10.2570 H   0  0  0  0  0  0  0  0  0  0  0  0
  -13.9207   -0.7826  -10.1439 H   0  0  0  0  0  0  0  0  0  0  0  0
  -15.2789   -2.6513   -9.2055 H   0  0  0  0  0  0  0  0  0  0  0  0
  -14.2272   -4.8671   -8.7614 H   0  0  0  0  0  0  0  0  0  0  0  0
  -11.8103   -5.2166   -9.2671 H   0  0  0  0  0  0  0  0  0  0  0  0
  -10.4500   -3.3516  -10.2068 H   0  0  0  0  0  0  0  0  0  0  0  0
   -6.2982   -0.4602  -14.9689 H   0  0  0  0  0  0  0  0  0  0  0  0
   -7.4332    2.9758  -17.3020 H   0  0  0  0  0  0  0  0  0  0  0  0
   -7.0172    4.5552  -19.1399 H   0  0  0  0  0  0  0  0  0  0  0  0
   -8.4690    8.5510  -20.1590 H   0  0  0  0  0  0  0  0  0  0  0  0
  -11.0244    7.4453  -21.1519 H   0  0  0  0  0  0  0  0  0  0  0  0
  -10.1332    8.8227  -21.8834 H   0  0  0  0  0  0  0  0  0  0  0  0
   -9.4053    7.1804  -21.8834 H   0  0  0  0  0  0  0  0  0  0  0  0
  -10.8366    7.3737  -17.8884 H   0  0  0  0  0  0  0  0  0  0  0  0
  1  2  1  0
  2  3  1  0
  3  4  1  0
  4  5  2  0
  4  6  1  0
  6  7  1  0
  7  8  1  0
  8  9  2  0
  9 10  1  0
 10 11  1  0
 11 12  2  0
 11 13  1  0
 13 14  1  0
 14 15  2  0
 15 16  1  0
 16 17  2  0
 17 18  1  0
 18 19  2  0
  9 20  1  0
 20 21  1  0
 20 22  2  0
 22 23  1  0
 23 24  1  0
  6 25  2  0
 25 26  1  0
 26 27  2  0
 27 28  1  0
 28 29  2  0
 29 30  1  0
 30 31  1  0
 29 32  1  0
 32 33  2  0
 33  3  1  0
 23  7  2  0
 33 26  1  0
 19 14  1  0
  1 34  1  0
  1 35  1  0
  1 36  1  0
  2 37  1  0
  2 38  1  0
  8 39  1  0
 10 40  1  0
 13 41  1  0
 15 42  1  0
 16 43  1  0
 17 44  1  0
 18 45  1  0
 19 46  1  0
 22 47  1  0
 25 48  1  0
 27 49  1  0
 30 50  1  0
 31 51  1  0
 31 52  1  0
 31 53  1  0
 32 54  1  0
M  END
>  <meeko>  (8) 
{"is_sidechain": false}

>  <vina_affinity_kcal_mol>  (8) 
-7.814

>  <pose_rank>  (8) 
8

$$$$

     RDKit          3D

 54 57  0  0  0  0  0  0  0  0999 V2000
  -12.2930   -0.0240   -5.3010 C   0  0  0  0  0  0  0  0  0  0  0  0
  -13.0290    0.6740   -6.4350 C   0  0  0  0  0  0  0  0  0  0  0  0
  -13.1010   -0.1560   -7.6380 N   0  0  0  0  0  0  0  0  0  0  0  0
  -12.0640   -0.0250   -8.5650 C   0  0  0  0  0  0  0  0  0  0  0  0
  -11.1050    0.7290   -8.4020 O   0  0  0  0  0  0  0  0  0  0  0  0
  -12.1400   -0.8620   -9.8080 C   0  0  0  0  0  0  0  0  0  0  0  0
  -11.0730   -0.7750  -10.8240 C   0  0  0  0  0  0  0  0  0  0  0  0
  -11.2740    0.0790  -11.9270 C   0  0  0  0  0  0  0  0  0  0  0  0
  -10.3040    0.1970  -12.9250 C   0  0  0  0  0  0  0  0  0  0  0  0
  -10.4280    1.0230  -14.0620 N   0  0  0  0  0  0  0  0  0  0  0  0
   -9.9450    2.3140  -14.2190 C   0  0  0  0  0  0  0  0  0  0  0  0
   -9.2370    2.8900  -13.4040 O   0  0  0  0  0  0  0  0  0  0  0  0
  -10.3770    2.8400  -15.4260 N   0  0  0  0  0  0  0  0  0  0  0  0
  -10.0260    4.0810  -15.9990 C   0  0  0  0  0  0  0  0  0  0  0  0
  -10.7850    5.2440  -15.8680 C   0  0  0  0  0  0  0  0  0  0  0  0
  -10.3600    6.4390  -16.4600 C   0  0  0  0  0  0  0  0  0  0  0  0
   -9.1710    6.4800  -17.1830 C   0  0  0  0  0  0  0  0  0  0  0  0
   -8.4030    5.3270  -17.3140 C   0  0  0  0  0  0  0  0  0  0  0  0
   -8.8270    4.1340  -16.7230 C   0  0  0  0  0  0  0  0  0  0  0  0
   -9.1370   -0.5680  -12.8150 C   0  0  0  0  0  0  0  0  0  0  0  0
   -8.1990   -0.4770  -13.7730 F   0  0  0  0  0  0  0  0  0  0  0  0
   -8.9120   -1.4120  -11.7340 C   0  0  0  0  0  0  0  0  0  0  0  0
   -9.8790   -1.5110  -10.7340 C   0  0  0  0  0  0  0  0  0  0  0  0
   -9.4990   -2.6510   -9.2600 Br  0  0  0  0  0  0  0  0  0  0  0  0
  -13.1730   -1.6900  -10.0170 C   0  0  0  0  0  0  0  0  0  0  0  0
  -14.2530   -1.7760   -9.0440 C   0  0  0  0  0  0  0  0  0  0  0  0
  -15.3490   -2.6030   -9.2560 C   0  0  0  0  0  0  0  0  0  0  0  0
  -16.3880   -2.7230   -8.4020 N   0  0  0  0  0  0  0  0  0  0  0  0
  -16.3490   -1.9900   -7.2770 C   0  0  0  0  0  0  0  0  0  0  0  0
  -17.4520   -2.1290   -6.4340 N   0  0  0  0  0  0  0  0  0  0  0  0
  -17.8320   -0.9050   -5.7480 C   0  0  0  0  0  0  0  0  0  0  0  0
  -15.2990   -1.1240   -6.9870 C   0  0  0  0  0  0  0  0  0  0  0  0
  -14.2220   -1.0140   -7.8750 C   0  0  0  0  0  0  0  0  0  0  0  0
  -12.6765    0.3397   -4.3363 H   0  0  0  0  0  0  0  0  0  0  0  0
  -12.4532   -1.1099   -5.3734 H   0  0  0  0  0  0  0  0  0  0  0  0
  -11.2172    0.1935   -5.3734 H   0  0  0  0  0  0  0  0  0  0  0  0
  -14.0515    0.9074   -6.1035 H   0  0  0  0  0  0  0  0  0  0  0  0
  -12.4726    1.5887   -6.6875 H   0  0  0  0  0  0  0  0  0  0  0  0
  -12.2054    0.6592  -12.0028 H   0  0  0  0  0  0  0  0  0  0  0  0
  -10.7390    0.5500  -14.9010 H   0  0  0  0  0  0  0  0  0  0  0  0
  -11.1290    2.3440  -15.8790 H   0  0  0  0  0  0  0  0  0  0  0  0
  -11.7240    5.2218  -15.2955 H   0  0  0  0  0  0  0  0  0  0  0  0
  -10.9680    7.3495  -16.3535 H   0  0  0  0  0  0  0  0  0  0  0  0
   -8.8400    7.4199  -17.6488 H   0  0  0  0  0  0  0  0  0  0  0  0
   -7.4620    5.3548  -17.8829 H   0  0  0  0  0  0  0  0  0  0  0  0
   -8.2134    3.2270  -16.8270 H   0  0  0  0  0  0  0  0  0  0  0  0
   -7.9817   -1.9953  -11.6679 H   0  0  0  0  0  0  0  0  0  0  0  0
  -13.2051   -2.3070  -10.9271 H   0  0  0  0  0  0  0  0  0  0  0  0
  -15.3719   -3.1991  -10.1802 H   0  0  0  0  0  0  0  0  0  0  0  0
  -17.1590   -2.8450   -5.7670 H   0  0  0  0  0  0  0  0  0  0  0  0
  -17.7827   -1.0637   -4.6606 H   0  0  0  0  0  0  0  0  0  0  0  0
  -17.1426   -0.0963   -6.0321 H   0  0  0  0  0  0  0  0  0  0  0  0
  -18.8582   -0.6289   -6.0321 H   0  0  0  0  0  0  0  0  0  0  0  0
  -15.3151   -0.5276   -6.0628 H   0  0  0  0  0  0  0  0  0  0  0  0
  1  2  1  0
  2  3  1  0
  3  4  1  0
  4  5  2  0
  4  6  1  0
  6  7  1  0
  7  8  1  0
  8  9  2  0
  9 10  1  0
 10 11  1  0
 11 12  2  0
 11 13  1  0
 13 14  1  0
 14 15  2  0
 15 16  1  0
 16 17  2  0
 17 18  1  0
 18 19  2  0
  9 20  1  0
 20 21  1  0
 20 22  2  0
 22 23  1  0
 23 24  1  0
  6 25  2  0
 25 26  1  0
 26 27  2  0
 27 28  1  0
 28 29  2  0
 29 30  1  0
 30 31  1  0
 29 32  1  0
 32 33  2  0
 33  3  1  0
 23  7  2  0
 33 26  1  0
 19 14  1  0
  1 34  1  0
  1 35  1  0
  1 36  1  0
  2 37  1  0
  2 38  1  0
  8 39  1  0
 10 40  1  0
 13 41  1  0
 15 42  1  0
 16 43  1  0
 17 44  1  0
 18 45  1  0
 19 46  1  0
 22 47  1  0
 25 48  1  0
 27 49  1  0
 30 50  1  0
 31 51  1  0
 31 52  1  0
 31 53  1  0
 32 54  1  0
M  END
>  <meeko>  (9) 
{"is_sidechain": false}

>  <vina_affinity_kcal_mol>  (9) 
-7.796

>  <pose_rank>  (9) 
9

$$$$

     RDKit          3D

 54 57  0  0  0  0  0  0  0  0999 V2000
   -1.5580   -2.5560  -17.5760 C   0  0  0  0  0  0  0  0  0  0  0  0
   -1.7660   -3.1090  -16.1740 C   0  0  0  0  0  0  0  0  0  0  0  0
   -3.1720   -3.4020  -15.9000 N   0  0  0  0  0  0  0  0  0  0  0  0
   -3.9450   -2.3690  -15.3630 C   0  0  0  0  0  0  0  0  0  0  0  0
   -3.5020   -1.2430  -15.1370 O   0  0  0  0  0  0  0  0  0  0  0  0
   -5.3850   -2.6670  -15.0650 C   0  0  0  0  0  0  0  0  0  0  0  0
   -6.2560   -1.6170  -14.5030 C   0  0  0  0  0  0  0  0  0  0  0  0
   -6.9040   -0.7420  -15.3970 C   0  0  0  0  0  0  0  0  0  0  0  0
   -7.7330    0.2770  -14.9240 C   0  0  0  0  0  0  0  0  0  0  0  0
   -8.4140    1.1970  -15.7500 N   0  0  0  0  0  0  0  0  0  0  0  0
   -8.1200    2.5410  -15.9300 C   0  0  0  0  0  0  0  0  0  0  0  0
   -7.1410    3.1030  -15.4600 O   0  0  0  0  0  0  0  0  0  0  0  0
   -9.0910    3.1380  -16.7180 N   0  0  0  0  0  0  0  0  0  0  0  0
   -9.1070    4.4610  -17.2100 C   0  0  0  0  0  0  0  0  0  0  0  0
   -8.4230    4.8760  -18.3530 C   0  0  0  0  0  0  0  0  0  0  0  0
   -8.5000    6.2060  -18.7810 C   0  0  0  0  0  0  0  0  0  0  0  0
   -9.2630    7.1290  -18.0710 C   0  0  0  0  0  0  0  0  0  0  0  0
   -9.9540    6.7240  -16.9330 C   0  0  0  0  0  0  0  0  0  0  0  0
   -9.8780    5.3960  -16.5070 C   0  0  0  0  0  0  0  0  0  0  0  0
   -7.8900    0.4230  -13.5410 C   0  0  0  0  0  0  0  0  0  0  0  0
   -8.6740    1.4050  -13.0680 F   0  0  0  0  0  0  0  0  0  0  0  0
   -7.2680   -0.4330  -12.6390 C   0  0  0  0  0  0  0  0  0  0  0  0
   -6.4540   -1.4580  -13.1210 C   0  0  0  0  0  0  0  0  0  0  0  0
   -5.6610   -2.6190  -11.8410 Br  0  0  0  0  0  0  0  0  0  0  0  0
   -5.8960   -3.8850  -15.2960 C   0  0  0  0  0  0  0  0  0  0  0  0
   -5.0530   -4.9470  -15.8240 C   0  0  0  0  0  0  0  0  0  0  0  0
   -5.5540   -6.2250  -16.0410 C   0  0  0  0  0  0  0  0  0  0  0  0
   -4.8260   -7.2570  -16.5190 N   0  0  0  0  0  0  0  0  0  0  0  0
   -3.5340   -7.0220  -16.8000 C   0  0  0  0  0  0  0  0  0  0  0  0
   -2.8150   -8.1210  -17.2710 N   0  0  0  0  0  0  0  0  0  0  0  0
   -1.9250   -7.8160  -18.3790 C   0  0  0  0  0  0  0  0  0  0  0  0
   -2.9420   -5.7780  -16.6020 C   0  0  0  0  0  0  0  0  0  0  0  0
   -3.7080   -4.7120  -16.1150 C   0  0  0  0  0  0  0  0  0  0  0  0
   -1.1714   -1.5282  -17.5111 H   0  0  0  0  0  0  0  0  0  0  0  0
   -0.8355   -3.1862  -18.1153 H   0  0  0  0  0  0  0  0  0  0  0  0
   -2.5167   -2.5538  -18.1153 H   0  0  0  0  0  0  0  0  0  0  0  0
   -1.1836   -4.0362  -16.0687 H   0  0  0  0  0  0  0  0  0  0  0  0
   -1.4337   -2.3446  -15.4562 H   0  0  0  0  0  0  0  0  0  0  0  0
   -6.7551   -0.8630  -16.4801 H   0  0  0  0  0  0  0  0  0  0  0  0
   -9.0600    0.7820  -16.4090 H   0  0  0  0  0  0  0  0  0  0  0  0
   -9.9440    2.6140  -16.8390 H   0  0  0  0  0  0  0  0  0  0  0  0
   -7.8194    4.1531  -18.9213 H   0  0  0  0  0  0  0  0  0  0  0  0
   -7.9553    6.5236  -19.6823 H   0  0  0  0  0  0  0  0  0  0  0  0
   -9.3194    8.1745  -18.4083 H   0  0  0  0  0  0  0  0  0  0  0  0
  -10.5595    7.4491  -16.3695 H   0  0  0  0  0  0  0  0  0  0  0  0
  -10.4298    5.0806  -15.6092 H   0  0  0  0  0  0  0  0  0  0  0  0
   -7.4163   -0.3033  -11.5568 H   0  0  0  0  0  0  0  0  0  0  0  0
   -6.9575   -4.0823  -15.0854 H   0  0  0  0  0  0  0  0  0  0  0  0
   -6.6134   -6.4079  -15.8080 H   0  0  0  0  0  0  0  0  0  0  0  0
   -3.5400   -8.7810  -17.5560 H   0  0  0  0  0  0  0  0  0  0  0  0
   -0.9526   -7.4828  -17.9872 H   0  0  0  0  0  0  0  0  0  0  0  0
   -1.7832   -8.7168  -18.9941 H   0  0  0  0  0  0  0  0  0  0  0  0
   -2.3656   -7.0176  -18.9941 H   0  0  0  0  0  0  0  0  0  0  0  0
   -1.8752   -5.6327  -16.8275 H   0  0  0  0  0  0  0  0  0  0  0  0
  1  2  1  0
  2  3  1  0
  3  4  1  0
  4  5  2  0
  4  6  1  0
  6  7  1  0
  7  8  1  0
  8  9  2  0
  9 10  1  0
 10 11  1  0
 11 12  2  0
 11 13  1  0
 13 14  1  0
 14 15  2  0
 15 16  1  0
 16 17  2  0
 17 18  1  0
 18 19  2  0
  9 20  1  0
 20 21  1  0
 20 22  2  0
 22 23  1  0
 23 24  1  0
  6 25  2  0
 25 26  1  0
 26 27  2  0
 27 28  1  0
 28 29  2  0
 29 30  1  0
 30 31  1  0
 29 32  1  0
 32 33  2  0
 33  3  1  0
 23  7  2  0
 33 26  1  0
 19 14  1  0
  1 34  1  0
  1 35  1  0
  1 36  1  0
  2 37  1  0
  2 38  1  0
  8 39  1  0
 10 40  1  0
 13 41  1  0
 15 42  1  0
 16 43  1  0
 17 44  1  0
 18 45  1  0
 19 46  1  0
 22 47  1  0
 25 48  1  0
 27 49  1  0
 30 50  1  0
 31 51  1  0
 31 52  1  0
 31 53  1  0
 32 54  1  0
M  END
>  <meeko>  (10) 
{"is_sidechain": false}

>  <vina_affinity_kcal_mol>  (10) 
-7.689

>  <pose_rank>  (10) 
10

$$$$
