
     RDKit          3D

 49 52  0  0  0  0  0  0  0  0999 V2000
  -38.2550  165.8460   -8.2620 C   0  0  0  0  0  0  0  0  0  0  0  0
  -37.3650  164.8730   -7.7250 O   0  0  0  0  0  0  0  0  0  0  0  0
  -37.7800  164.1500   -6.6330 C   0  0  0  0  0  0  0  0  0  0  0  0
  -37.9530  164.7170   -5.3590 C   0  0  0  0  0  0  0  0  0  0  0  0
  -38.3750  163.9770   -4.2610 C   0  0  0  0  0  0  0  0  0  0  0  0
  -38.5110  164.6000   -3.0770 N   0  0  0  0  0  0  0  0  0  0  0  0
  -38.9080  163.8750   -2.0090 C   0  0  0  0  0  0  0  0  0  0  0  0
  -39.1920  162.5270   -2.0620 C   0  0  0  0  0  0  0  0  0  0  0  0
  -39.0740  161.8960   -3.2950 C   0  0  0  0  0  0  0  0  0  0  0  0
  -39.3080  160.5420   -3.4070 O   0  0  0  0  0  0  0  0  0  0  0  0
  -39.1990  159.7840   -2.2610 C   0  0  0  0  0  0  0  0  0  0  0  0
  -38.1640  158.8780   -2.0310 C   0  0  0  0  0  0  0  0  0  0  0  0
  -38.1080  158.1640   -0.8280 C   0  0  0  0  0  0  0  0  0  0  0  0
  -39.0760  158.3590    0.1620 C   0  0  0  0  0  0  0  0  0  0  0  0
  -39.0640  157.6730    1.3990 N   0  0  0  0  0  0  0  0  0  0  0  0
  -38.1060  157.7290    2.3880 C   0  0  0  0  0  0  0  0  0  0  0  0
  -37.0380  158.3250    2.3310 O   0  0  0  0  0  0  0  0  0  0  0  0
  -38.4960  156.9830    3.4910 N   0  0  0  0  0  0  0  0  0  0  0  0
  -37.6880  156.9200    4.6710 C   0  0  0  0  0  0  0  0  0  0  0  0
  -37.7600  155.7280    5.5850 C   0  0  0  0  0  0  0  0  0  0  0  0
  -36.5320  155.9610    4.7550 C   0  0  0  0  0  0  0  0  0  0  0  0
  -40.0940  159.3020   -0.0740 C   0  0  0  0  0  0  0  0  0  0  0  0
  -41.3140  159.6120    1.1180 Cl  0  0  0  0  0  0  0  0  0  0  0  0
  -40.1560  160.0130   -1.2750 C   0  0  0  0  0  0  0  0  0  0  0  0
  -38.6390  162.6090   -4.4300 C   0  0  0  0  0  0  0  0  0  0  0  0
  -38.4680  162.0240   -5.7020 C   0  0  0  0  0  0  0  0  0  0  0  0
  -38.0400  162.7800   -6.8070 C   0  0  0  0  0  0  0  0  0  0  0  0
  -37.9010  162.0340   -8.0980 C   0  0  0  0  0  0  0  0  0  0  0  0
  -38.5650  162.4990   -9.1940 N   0  0  0  0  0  0  0  0  0  0  0  0
  -37.2100  161.0250   -8.1850 O   0  0  0  0  0  0  0  0  0  0  0  0
  -38.7482  166.3852   -7.4398 H   0  0  0  0  0  0  0  0  0  0  0  0
  -37.6895  166.5584   -8.8805 H   0  0  0  0  0  0  0  0  0  0  0  0
  -39.0149  165.3461   -8.8805 H   0  0  0  0  0  0  0  0  0  0  0  0
  -37.7462  165.7891   -5.2255 H   0  0  0  0  0  0  0  0  0  0  0  0
  -39.0106  164.3892   -1.0420 H   0  0  0  0  0  0  0  0  0  0  0  0
  -39.5000  161.9723   -1.1635 H   0  0  0  0  0  0  0  0  0  0  0  0
  -37.3896  158.7240   -2.7968 H   0  0  0  0  0  0  0  0  0  0  0  0
  -37.2947  157.4427   -0.6600 H   0  0  0  0  0  0  0  0  0  0  0  0
  -39.7620  156.9480    1.4940 H   0  0  0  0  0  0  0  0  0  0  0  0
  -39.4900  156.8570    3.6090 H   0  0  0  0  0  0  0  0  0  0  0  0
  -37.8103  158.0059    4.7969 H   0  0  0  0  0  0  0  0  0  0  0  0
  -37.7213  155.8682    6.6753 H   0  0  0  0  0  0  0  0  0  0  0  0
  -38.4616  154.8911    5.7171 H   0  0  0  0  0  0  0  0  0  0  0  0
  -35.5934  156.2721    5.2370 H   0  0  0  0  0  0  0  0  0  0  0  0
  -35.9612  155.3658    4.0271 H   0  0  0  0  0  0  0  0  0  0  0  0
  -40.9560  160.7495   -1.4411 H   0  0  0  0  0  0  0  0  0  0  0  0
  -38.6743  160.9514   -5.8323 H   0  0  0  0  0  0  0  0  0  0  0  0
  -38.4760  161.9930  -10.0650 H   0  0  0  0  0  0  0  0  0  0  0  0
  -39.1480  163.3250   -9.1500 H   0  0  0  0  0  0  0  0  0  0  0  0
  1  2  1  0
  2  3  1  0
  3  4  1  0
  4  5  2  0
  5  6  1  0
  6  7  2  0
  7  8  1  0
  8  9  2  0
  9 10  1  0
 10 11  1  0
 11 12  1  0
 12 13  2  0
 13 14  1  0
 14 15  1  0
 15 16  1  0
 16 17  2  0
 16 18  1  0
 18 19  1  0
 19 20  1  0
 20 21  1  0
 14 22  2  0
 22 23  1  0
 22 24  1  0
  9 25  1  0
 25 26  2  0
 26 27  1  0
 27 28  1  0
 28 29  1  0
 28 30  2  0
 27  3  2  0
 25  5  1  0
 24 11  2  0
 21 19  1  0
  1 31  1  0
  1 32  1  0
  1 33  1  0
  4 34  1  0
  7 35  1  0
  8 36  1  0
 12 37  1  0
 13 38  1  0
 15 39  1  0
 18 40  1  0
 19 41  1  0
 20 42  1  0
 20 43  1  0
 21 44  1  0
 21 45  1  0
 24 46  1  0
 26 47  1  0
 29 48  1  0
 29 49  1  0
M  END
>  <meeko>  (1) 
{"is_sidechain": false}

>  <vina_affinity_kcal_mol>  (1) 
-10.112

>  <pose_rank>  (1) 
1

$$$$

     RDKit          3D

 49 52  0  0  0  0  0  0  0  0999 V2000
  -37.2110  166.2740   -9.5180 C   0  0  0  0  0  0  0  0  0  0  0  0
  -37.5410  164.8900   -9.4520 O   0  0  0  0  0  0  0  0  0  0  0  0
  -37.8600  164.3600   -8.2260 C   0  0  0  0  0  0  0  0  0  0  0  0
  -38.0360  165.1430   -7.0730 C   0  0  0  0  0  0  0  0  0  0  0  0
  -38.3600  164.5960   -5.8370 C   0  0  0  0  0  0  0  0  0  0  0  0
  -38.5070  165.4210   -4.7860 N   0  0  0  0  0  0  0  0  0  0  0  0
  -38.8080  164.8840   -3.5830 C   0  0  0  0  0  0  0  0  0  0  0  0
  -38.9840  163.5340   -3.3700 C   0  0  0  0  0  0  0  0  0  0  0  0
  -38.8560  162.6910   -4.4680 C   0  0  0  0  0  0  0  0  0  0  0  0
  -38.9840  161.3260   -4.3140 O   0  0  0  0  0  0  0  0  0  0  0  0
  -38.9400  160.8280   -3.0300 C   0  0  0  0  0  0  0  0  0  0  0  0
  -37.8190  160.2050   -2.4820 C   0  0  0  0  0  0  0  0  0  0  0  0
  -37.8430  159.7480   -1.1590 C   0  0  0  0  0  0  0  0  0  0  0  0
  -38.9820  159.9230   -0.3660 C   0  0  0  0  0  0  0  0  0  0  0  0
  -39.0600  159.4910    0.9780 N   0  0  0  0  0  0  0  0  0  0  0  0
  -38.4060  158.4290    1.5650 C   0  0  0  0  0  0  0  0  0  0  0  0
  -37.6990  157.6070    0.9950 O   0  0  0  0  0  0  0  0  0  0  0  0
  -38.6710  158.3800    2.9260 N   0  0  0  0  0  0  0  0  0  0  0  0
  -38.0700  157.3900    3.7680 C   0  0  0  0  0  0  0  0  0  0  0  0
  -36.5770  157.3240    3.9240 C   0  0  0  0  0  0  0  0  0  0  0  0
  -37.4280  157.7840    5.0700 C   0  0  0  0  0  0  0  0  0  0  0  0
  -40.0920  160.5830   -0.9260 C   0  0  0  0  0  0  0  0  0  0  0  0
  -41.5280  160.8550    0.0070 Cl  0  0  0  0  0  0  0  0  0  0  0  0
  -40.0730  161.0370   -2.2470 C   0  0  0  0  0  0  0  0  0  0  0  0
  -38.5190  163.2050   -5.7360 C   0  0  0  0  0  0  0  0  0  0  0  0
  -38.3430  162.4040   -6.8830 C   0  0  0  0  0  0  0  0  0  0  0  0
  -38.0150  162.9660   -8.1290 C   0  0  0  0  0  0  0  0  0  0  0  0
  -37.8590  162.0010   -9.2630 C   0  0  0  0  0  0  0  0  0  0  0  0
  -38.6340  162.1660  -10.3720 N   0  0  0  0  0  0  0  0  0  0  0  0
  -37.0560  161.0750   -9.2130 O   0  0  0  0  0  0  0  0  0  0  0  0
  -37.1149  166.6770   -8.4990 H   0  0  0  0  0  0  0  0  0  0  0  0
  -36.2580  166.3986  -10.0530 H   0  0  0  0  0  0  0  0  0  0  0  0
  -38.0053  166.8152  -10.0530 H   0  0  0  0  0  0  0  0  0  0  0  0
  -37.9124  166.2332   -7.1515 H   0  0  0  0  0  0  0  0  0  0  0  0
  -38.9188  165.5633   -2.7249 H   0  0  0  0  0  0  0  0  0  0  0  0
  -39.2167  163.1388   -2.3702 H   0  0  0  0  0  0  0  0  0  0  0  0
  -36.9129  160.0723   -3.0914 H   0  0  0  0  0  0  0  0  0  0  0  0
  -36.9583  159.2468   -0.7393 H   0  0  0  0  0  0  0  0  0  0  0  0
  -39.7950  159.9190    1.5250 H   0  0  0  0  0  0  0  0  0  0  0  0
  -38.9230  159.2570    3.3570 H   0  0  0  0  0  0  0  0  0  0  0  0
  -38.8535  156.6780    3.4694 H   0  0  0  0  0  0  0  0  0  0  0  0
  -36.0720  156.3480    3.9715 H   0  0  0  0  0  0  0  0  0  0  0  0
  -35.7193  157.7417    3.3764 H   0  0  0  0  0  0  0  0  0  0  0  0
  -37.5473  157.1451    5.9575 H   0  0  0  0  0  0  0  0  0  0  0  0
  -37.4530  158.6782    5.7102 H   0  0  0  0  0  0  0  0  0  0  0  0
  -40.9473  161.5563   -2.6663 H   0  0  0  0  0  0  0  0  0  0  0  0
  -38.4652  161.3139   -6.8008 H   0  0  0  0  0  0  0  0  0  0  0  0
  -38.5340  161.5130  -11.1350 H   0  0  0  0  0  0  0  0  0  0  0  0
  -39.3100  162.9170  -10.4380 H   0  0  0  0  0  0  0  0  0  0  0  0
  1  2  1  0
  2  3  1  0
  3  4  1  0
  4  5  2  0
  5  6  1  0
  6  7  2  0
  7  8  1  0
  8  9  2  0
  9 10  1  0
 10 11  1  0
 11 12  1  0
 12 13  2  0
 13 14  1  0
 14 15  1  0
 15 16  1  0
 16 17  2  0
 16 18  1  0
 18 19  1  0
 19 20  1  0
 20 21  1  0
 14 22  2  0
 22 23  1  0
 22 24  1  0
  9 25  1  0
 25 26  2  0
 26 27  1  0
 27 28  1  0
 28 29  1  0
 28 30  2  0
 27  3  2  0
 25  5  1  0
 24 11  2  0
 21 19  1  0
  1 31  1  0
  1 32  1  0
  1 33  1  0
  4 34  1  0
  7 35  1  0
  8 36  1  0
 12 37  1  0
 13 38  1  0
 15 39  1  0
 18 40  1  0
 19 41  1  0
 20 42  1  0
 20 43  1  0
 21 44  1  0
 21 45  1  0
 24 46  1  0
 26 47  1  0
 29 48  1  0
 29 49  1  0
M  END
>  <meeko>  (2) 
{"is_sidechain": false}

>  <vina_affinity_kcal_mol>  (2) 
-9.327

>  <pose_rank>  (2) 
2

$$$$

     RDKit          3D

 49 52  0  0  0  0  0  0  0  0999 V2000
  -35.3490  151.8690    7.3930 C   0  0  0  0  0  0  0  0  0  0  0  0
  -35.4460  152.1590    6.0010 O   0  0  0  0  0  0  0  0  0  0  0  0
  -35.9210  153.3920    5.6300 C   0  0  0  0  0  0  0  0  0  0  0  0
  -35.1780  154.5770    5.7750 C   0  0  0  0  0  0  0  0  0  0  0  0
  -35.6680  155.8200    5.3940 C   0  0  0  0  0  0  0  0  0  0  0  0
  -34.8900  156.9010    5.5720 N   0  0  0  0  0  0  0  0  0  0  0  0
  -35.3760  158.1100    5.2130 C   0  0  0  0  0  0  0  0  0  0  0  0
  -36.6250  158.3010    4.6640 C   0  0  0  0  0  0  0  0  0  0  0  0
  -37.4130  157.1740    4.4600 C   0  0  0  0  0  0  0  0  0  0  0  0
  -38.6870  157.3020    3.9480 O   0  0  0  0  0  0  0  0  0  0  0  0
  -38.8200  157.9260    2.7270 C   0  0  0  0  0  0  0  0  0  0  0  0
  -37.8260  157.9250    1.7480 C   0  0  0  0  0  0  0  0  0  0  0  0
  -38.0480  158.5590    0.5190 C   0  0  0  0  0  0  0  0  0  0  0  0
  -39.2670  159.1880    0.2530 C   0  0  0  0  0  0  0  0  0  0  0  0
  -39.5490  159.8360   -0.9720 N   0  0  0  0  0  0  0  0  0  0  0  0
  -39.3170  161.1530   -1.3070 C   0  0  0  0  0  0  0  0  0  0  0  0
  -38.8980  162.0290   -0.5590 O   0  0  0  0  0  0  0  0  0  0  0  0
  -39.6470  161.3890   -2.6330 N   0  0  0  0  0  0  0  0  0  0  0  0
  -39.4520  162.6740   -3.2330 C   0  0  0  0  0  0  0  0  0  0  0  0
  -38.1130  163.0610   -3.7960 C   0  0  0  0  0  0  0  0  0  0  0  0
  -39.2650  162.8020   -4.7200 C   0  0  0  0  0  0  0  0  0  0  0  0
  -40.2700  159.1520    1.2400 C   0  0  0  0  0  0  0  0  0  0  0  0
  -41.8140  159.8900    0.9670 Cl  0  0  0  0  0  0  0  0  0  0  0  0
  -40.0520  158.5230    2.4680 C   0  0  0  0  0  0  0  0  0  0  0  0
  -36.9570  155.8970    4.8410 C   0  0  0  0  0  0  0  0  0  0  0  0
  -37.7160  154.7180    4.6910 C   0  0  0  0  0  0  0  0  0  0  0  0
  -37.2130  153.4650    5.0800 C   0  0  0  0  0  0  0  0  0  0  0  0
  -38.1240  152.2960    4.8640 C   0  0  0  0  0  0  0  0  0  0  0  0
  -38.4570  151.9560    3.5870 N   0  0  0  0  0  0  0  0  0  0  0  0
  -38.5710  151.6480    5.8040 O   0  0  0  0  0  0  0  0  0  0  0  0
  -35.6454  152.7550    7.9736 H   0  0  0  0  0  0  0  0  0  0  0  0
  -36.0151  151.0292    7.6399 H   0  0  0  0  0  0  0  0  0  0  0  0
  -34.3116  151.5990    7.6399 H   0  0  0  0  0  0  0  0  0  0  0  0
  -34.1683  154.5175    6.2074 H   0  0  0  0  0  0  0  0  0  0  0  0
  -34.7375  158.9922    5.3681 H   0  0  0  0  0  0  0  0  0  0  0  0
  -36.9847  159.3058    4.3975 H   0  0  0  0  0  0  0  0  0  0  0  0
  -36.8655  157.4250    1.9418 H   0  0  0  0  0  0  0  0  0  0  0  0
  -37.2554  158.5618   -0.2438 H   0  0  0  0  0  0  0  0  0  0  0  0
  -40.1240  159.3080   -1.6150 H   0  0  0  0  0  0  0  0  0  0  0  0
  -39.6120  160.5870   -3.2450 H   0  0  0  0  0  0  0  0  0  0  0  0
  -40.1405  163.1089   -2.4935 H   0  0  0  0  0  0  0  0  0  0  0  0
  -37.7356  164.0855   -3.6618 H   0  0  0  0  0  0  0  0  0  0  0  0
  -37.0887  162.6709   -3.7028 H   0  0  0  0  0  0  0  0  0  0  0  0
  -39.7326  163.6365   -5.2631 H   0  0  0  0  0  0  0  0  0  0  0  0
  -39.4354  162.1435   -5.5845 H   0  0  0  0  0  0  0  0  0  0  0  0
  -40.8485  158.4991    3.2263 H   0  0  0  0  0  0  0  0  0  0  0  0
  -38.7258  154.7807    4.2592 H   0  0  0  0  0  0  0  0  0  0  0  0
  -39.0760  151.1710    3.4400 H   0  0  0  0  0  0  0  0  0  0  0  0
  -38.1080  152.4770    2.7920 H   0  0  0  0  0  0  0  0  0  0  0  0
  1  2  1  0
  2  3  1  0
  3  4  1  0
  4  5  2  0
  5  6  1  0
  6  7  2  0
  7  8  1  0
  8  9  2  0
  9 10  1  0
 10 11  1  0
 11 12  1  0
 12 13  2  0
 13 14  1  0
 14 15  1  0
 15 16  1  0
 16 17  2  0
 16 18  1  0
 18 19  1  0
 19 20  1  0
 20 21  1  0
 14 22  2  0
 22 23  1  0
 22 24  1  0
  9 25  1  0
 25 26  2  0
 26 27  1  0
 27 28  1  0
 28 29  1  0
 28 30  2  0
 27  3  2  0
 25  5  1  0
 24 11  2  0
 21 19  1  0
  1 31  1  0
  1 32  1  0
  1 33  1  0
  4 34  1  0
  7 35  1  0
  8 36  1  0
 12 37  1  0
 13 38  1  0
 15 39  1  0
 18 40  1  0
 19 41  1  0
 20 42  1  0
 20 43  1  0
 21 44  1  0
 21 45  1  0
 24 46  1  0
 26 47  1  0
 29 48  1  0
 29 49  1  0
M  END
>  <meeko>  (3) 
{"is_sidechain": false}

>  <vina_affinity_kcal_mol>  (3) 
-9.06

>  <pose_rank>  (3) 
3

$$$$

     RDKit          3D

 49 52  0  0  0  0  0  0  0  0999 V2000
  -38.1820  147.3180    4.2540 C   0  0  0  0  0  0  0  0  0  0  0  0
  -38.2410  147.8150    5.5880 O   0  0  0  0  0  0  0  0  0  0  0  0
  -37.7380  149.0690    5.8340 C   0  0  0  0  0  0  0  0  0  0  0  0
  -36.3620  149.3420    5.9130 C   0  0  0  0  0  0  0  0  0  0  0  0
  -35.8640  150.6160    6.1610 C   0  0  0  0  0  0  0  0  0  0  0  0
  -34.5330  150.7860    6.2230 N   0  0  0  0  0  0  0  0  0  0  0  0
  -34.0530  152.0230    6.4780 C   0  0  0  0  0  0  0  0  0  0  0  0
  -34.8510  153.1300    6.6700 C   0  0  0  0  0  0  0  0  0  0  0  0
  -36.2270  152.9490    6.5770 C   0  0  0  0  0  0  0  0  0  0  0  0
  -37.0810  154.0100    6.7960 O   0  0  0  0  0  0  0  0  0  0  0  0
  -37.2310  154.9230    5.7760 C   0  0  0  0  0  0  0  0  0  0  0  0
  -37.6760  154.5860    4.4980 C   0  0  0  0  0  0  0  0  0  0  0  0
  -37.8280  155.5790    3.5210 C   0  0  0  0  0  0  0  0  0  0  0  0
  -37.5510  156.9170    3.8160 C   0  0  0  0  0  0  0  0  0  0  0  0
  -37.6960  157.9610    2.8730 N   0  0  0  0  0  0  0  0  0  0  0  0
  -38.8570  158.4170    2.2870 C   0  0  0  0  0  0  0  0  0  0  0  0
  -39.9740  157.9320    2.4160 O   0  0  0  0  0  0  0  0  0  0  0  0
  -38.6010  159.5170    1.4820 N   0  0  0  0  0  0  0  0  0  0  0  0
  -39.6550  160.2010    0.7970 C   0  0  0  0  0  0  0  0  0  0  0  0
  -39.3600  161.0510   -0.4080 C   0  0  0  0  0  0  0  0  0  0  0  0
  -40.0950  159.7530   -0.5710 C   0  0  0  0  0  0  0  0  0  0  0  0
  -37.1350  157.2420    5.1210 C   0  0  0  0  0  0  0  0  0  0  0  0
  -36.7980  158.8840    5.5640 Cl  0  0  0  0  0  0  0  0  0  0  0  0
  -36.9790  156.2550    6.0970 C   0  0  0  0  0  0  0  0  0  0  0  0
  -36.7720  151.6720    6.3380 C   0  0  0  0  0  0  0  0  0  0  0  0
  -38.1560  151.4140    6.2640 C   0  0  0  0  0  0  0  0  0  0  0  0
  -38.6510  150.1230    6.0140 C   0  0  0  0  0  0  0  0  0  0  0  0
  -40.1420  149.9900    5.9600 C   0  0  0  0  0  0  0  0  0  0  0  0
  -40.7660  150.1310    4.7560 N   0  0  0  0  0  0  0  0  0  0  0  0
  -40.8030  149.7610    6.9670 O   0  0  0  0  0  0  0  0  0  0  0  0
  -38.0523  146.2259    4.2750 H   0  0  0  0  0  0  0  0  0  0  0  0
  -39.1159  147.5663    3.7285 H   0  0  0  0  0  0  0  0  0  0  0  0
  -37.3322  147.7781    3.7285 H   0  0  0  0  0  0  0  0  0  0  0  0
  -35.6505  148.5148    5.7731 H   0  0  0  0  0  0  0  0  0  0  0  0
  -32.9624  152.1540    6.5357 H   0  0  0  0  0  0  0  0  0  0  0  0
  -34.4172  154.1171    6.8880 H   0  0  0  0  0  0  0  0  0  0  0  0
  -37.9082  153.5383    4.2563 H   0  0  0  0  0  0  0  0  0  0  0  0
  -38.1686  155.3029    2.5122 H   0  0  0  0  0  0  0  0  0  0  0  0
  -36.8310  158.3030    2.4760 H   0  0  0  0  0  0  0  0  0  0  0  0
  -37.7830  160.0580    1.7220 H   0  0  0  0  0  0  0  0  0  0  0  0
  -40.1568  160.3658    1.7619 H   0  0  0  0  0  0  0  0  0  0  0  0
  -39.8898  162.0043   -0.5511 H   0  0  0  0  0  0  0  0  0  0  0  0
  -38.4512  161.4896   -0.8458 H   0  0  0  0  0  0  0  0  0  0  0  0
  -41.1633  159.7552   -0.8332 H   0  0  0  0  0  0  0  0  0  0  0  0
  -39.9479  158.8469   -1.1772 H   0  0  0  0  0  0  0  0  0  0  0  0
  -36.6590  156.5280    7.1134 H   0  0  0  0  0  0  0  0  0  0  0  0
  -38.8651  152.2430    6.4053 H   0  0  0  0  0  0  0  0  0  0  0  0
  -41.7720  150.0480    4.7200 H   0  0  0  0  0  0  0  0  0  0  0  0
  -40.2460  150.3280    3.9100 H   0  0  0  0  0  0  0  0  0  0  0  0
  1  2  1  0
  2  3  1  0
  3  4  1  0
  4  5  2  0
  5  6  1  0
  6  7  2  0
  7  8  1  0
  8  9  2  0
  9 10  1  0
 10 11  1  0
 11 12  1  0
 12 13  2  0
 13 14  1  0
 14 15  1  0
 15 16  1  0
 16 17  2  0
 16 18  1  0
 18 19  1  0
 19 20  1  0
 20 21  1  0
 14 22  2  0
 22 23  1  0
 22 24  1  0
  9 25  1  0
 25 26  2  0
 26 27  1  0
 27 28  1  0
 28 29  1  0
 28 30  2  0
 27  3  2  0
 25  5  1  0
 24 11  2  0
 21 19  1  0
  1 31  1  0
  1 32  1  0
  1 33  1  0
  4 34  1  0
  7 35  1  0
  8 36  1  0
 12 37  1  0
 13 38  1  0
 15 39  1  0
 18 40  1  0
 19 41  1  0
 20 42  1  0
 20 43  1  0
 21 44  1  0
 21 45  1  0
 24 46  1  0
 26 47  1  0
 29 48  1  0
 29 49  1  0
M  END
>  <meeko>  (4) 
{"is_sidechain": false}

>  <vina_affinity_kcal_mol>  (4) 
-8.674

>  <pose_rank>  (4) 
4

$$$$

     RDKit          3D

 49 52  0  0  0  0  0  0  0  0999 V2000
  -34.4540  165.3460  -12.0970 C   0  0  0  0  0  0  0  0  0  0  0  0
  -35.8680  165.3070  -11.9240 O   0  0  0  0  0  0  0  0  0  0  0  0
  -36.3690  164.6100  -10.8520 C   0  0  0  0  0  0  0  0  0  0  0  0
  -36.1930  163.2250  -10.6880 C   0  0  0  0  0  0  0  0  0  0  0  0
  -36.7030  162.5300   -9.5980 C   0  0  0  0  0  0  0  0  0  0  0  0
  -36.4900  161.2050   -9.5220 N   0  0  0  0  0  0  0  0  0  0  0  0
  -36.9990  160.5300   -8.4680 C   0  0  0  0  0  0  0  0  0  0  0  0
  -37.7210  161.1230   -7.4550 C   0  0  0  0  0  0  0  0  0  0  0  0
  -37.9140  162.4980   -7.5290 C   0  0  0  0  0  0  0  0  0  0  0  0
  -38.6590  163.1460   -6.5660 O   0  0  0  0  0  0  0  0  0  0  0  0
  -38.7540  162.5460   -5.3290 C   0  0  0  0  0  0  0  0  0  0  0  0
  -38.8710  161.1680   -5.1470 C   0  0  0  0  0  0  0  0  0  0  0  0
  -38.9350  160.6310   -3.8550 C   0  0  0  0  0  0  0  0  0  0  0  0
  -38.8690  161.4640   -2.7340 C   0  0  0  0  0  0  0  0  0  0  0  0
  -38.9200  160.9770   -1.4070 N   0  0  0  0  0  0  0  0  0  0  0  0
  -40.0110  160.9190   -0.5680 C   0  0  0  0  0  0  0  0  0  0  0  0
  -41.1280  161.3670   -0.7980 O   0  0  0  0  0  0  0  0  0  0  0  0
  -39.6810  160.2920    0.6240 N   0  0  0  0  0  0  0  0  0  0  0  0
  -40.6600  160.0690    1.6450 C   0  0  0  0  0  0  0  0  0  0  0  0
  -41.8170  159.1390    1.4060 C   0  0  0  0  0  0  0  0  0  0  0  0
  -40.7280  158.7480    2.3610 C   0  0  0  0  0  0  0  0  0  0  0  0
  -38.7180  162.8490   -2.9370 C   0  0  0  0  0  0  0  0  0  0  0  0
  -38.6050  163.9370   -1.5930 Cl  0  0  0  0  0  0  0  0  0  0  0  0
  -38.6570  163.3880   -4.2240 C   0  0  0  0  0  0  0  0  0  0  0  0
  -37.4220  163.2380   -8.6220 C   0  0  0  0  0  0  0  0  0  0  0  0
  -37.6090  164.6280   -8.7740 C   0  0  0  0  0  0  0  0  0  0  0  0
  -37.0910  165.3230   -9.8790 C   0  0  0  0  0  0  0  0  0  0  0  0
  -37.3620  166.7950   -9.9150 C   0  0  0  0  0  0  0  0  0  0  0  0
  -36.3040  167.6530   -9.9260 N   0  0  0  0  0  0  0  0  0  0  0  0
  -38.5060  167.2360   -9.9340 O   0  0  0  0  0  0  0  0  0  0  0  0
  -33.9643  165.3595  -11.1121 H   0  0  0  0  0  0  0  0  0  0  0  0
  -34.1284  164.4565  -12.6562 H   0  0  0  0  0  0  0  0  0  0  0  0
  -34.1779  166.2521  -12.6562 H   0  0  0  0  0  0  0  0  0  0  0  0
  -35.6296  162.6697  -11.4523 H   0  0  0  0  0  0  0  0  0  0  0  0
  -36.8272  159.4448   -8.4155 H   0  0  0  0  0  0  0  0  0  0  0  0
  -38.1283  160.5322   -6.6213 H   0  0  0  0  0  0  0  0  0  0  0  0
  -38.9131  160.5011   -6.0208 H   0  0  0  0  0  0  0  0  0  0  0  0
  -39.0381  159.5441   -3.7210 H   0  0  0  0  0  0  0  0  0  0  0  0
  -38.0200  160.7950   -0.9830 H   0  0  0  0  0  0  0  0  0  0  0  0
  -38.9070  159.6470    0.5830 H   0  0  0  0  0  0  0  0  0  0  0  0
  -40.5573  161.1194    1.9551 H   0  0  0  0  0  0  0  0  0  0  0  0
  -42.8164  159.3957    1.7871 H   0  0  0  0  0  0  0  0  0  0  0  0
  -42.2737  158.6789    0.5173 H   0  0  0  0  0  0  0  0  0  0  0  0
  -40.9292  158.7182    3.4420 H   0  0  0  0  0  0  0  0  0  0  0  0
  -40.0561  157.8829    2.4620 H   0  0  0  0  0  0  0  0  0  0  0  0
  -38.5330  164.4720   -4.3641 H   0  0  0  0  0  0  0  0  0  0  0  0
  -38.1740  165.1806   -8.0089 H   0  0  0  0  0  0  0  0  0  0  0  0
  -36.4860  168.6470   -9.9450 H   0  0  0  0  0  0  0  0  0  0  0  0
  -35.3490  167.3170   -9.9040 H   0  0  0  0  0  0  0  0  0  0  0  0
  1  2  1  0
  2  3  1  0
  3  4  1  0
  4  5  2  0
  5  6  1  0
  6  7  2  0
  7  8  1  0
  8  9  2  0
  9 10  1  0
 10 11  1  0
 11 12  1  0
 12 13  2  0
 13 14  1  0
 14 15  1  0
 15 16  1  0
 16 17  2  0
 16 18  1  0
 18 19  1  0
 19 20  1  0
 20 21  1  0
 14 22  2  0
 22 23  1  0
 22 24  1  0
  9 25  1  0
 25 26  2  0
 26 27  1  0
 27 28  1  0
 28 29  1  0
 28 30  2  0
 27  3  2  0
 25  5  1  0
 24 11  2  0
 21 19  1  0
  1 31  1  0
  1 32  1  0
  1 33  1  0
  4 34  1  0
  7 35  1  0
  8 36  1  0
 12 37  1  0
 13 38  1  0
 15 39  1  0
 18 40  1  0
 19 41  1  0
 20 42  1  0
 20 43  1  0
 21 44  1  0
 21 45  1  0
 24 46  1  0
 26 47  1  0
 29 48  1  0
 29 49  1  0
M  END
>  <meeko>  (5) 
{"is_sidechain": false}

>  <vina_affinity_kcal_mol>  (5) 
-8.57

>  <pose_rank>  (5) 
5

$$$$

     RDKit          3D

 49 52  0  0  0  0  0  0  0  0999 V2000
  -37.9380  157.0840  -12.0740 C   0  0  0  0  0  0  0  0  0  0  0  0
  -36.8640  158.0180  -12.1430 O   0  0  0  0  0  0  0  0  0  0  0  0
  -36.9240  159.1320  -11.3440 C   0  0  0  0  0  0  0  0  0  0  0  0
  -37.5290  160.3350  -11.7470 C   0  0  0  0  0  0  0  0  0  0  0  0
  -37.5850  161.4570  -10.9290 C   0  0  0  0  0  0  0  0  0  0  0  0
  -38.1810  162.5660  -11.3970 N   0  0  0  0  0  0  0  0  0  0  0  0
  -38.2220  163.6590  -10.6040 C   0  0  0  0  0  0  0  0  0  0  0  0
  -37.6930  163.7020   -9.3320 C   0  0  0  0  0  0  0  0  0  0  0  0
  -37.1010  162.5420   -8.8460 C   0  0  0  0  0  0  0  0  0  0  0  0
  -36.5200  162.5310   -7.5950 O   0  0  0  0  0  0  0  0  0  0  0  0
  -37.3480  162.3160   -6.5150 C   0  0  0  0  0  0  0  0  0  0  0  0
  -38.0760  161.1420   -6.3220 C   0  0  0  0  0  0  0  0  0  0  0  0
  -38.8750  160.9870   -5.1830 C   0  0  0  0  0  0  0  0  0  0  0  0
  -38.9430  161.9970   -4.2190 C   0  0  0  0  0  0  0  0  0  0  0  0
  -39.7250  161.8930   -3.0450 N   0  0  0  0  0  0  0  0  0  0  0  0
  -39.5430  161.0370   -1.9800 C   0  0  0  0  0  0  0  0  0  0  0  0
  -38.7090  160.1430   -1.9020 O   0  0  0  0  0  0  0  0  0  0  0  0
  -40.4640  161.2980   -0.9770 N   0  0  0  0  0  0  0  0  0  0  0  0
  -40.4510  160.5700    0.2560 C   0  0  0  0  0  0  0  0  0  0  0  0
  -41.7350  160.2550    0.9720 C   0  0  0  0  0  0  0  0  0  0  0  0
  -40.9580  159.1550    0.3120 C   0  0  0  0  0  0  0  0  0  0  0  0
  -38.1750  163.1610   -4.4130 C   0  0  0  0  0  0  0  0  0  0  0  0
  -38.1930  164.4440   -3.2470 Cl  0  0  0  0  0  0  0  0  0  0  0  0
  -37.3800  163.3210   -5.5510 C   0  0  0  0  0  0  0  0  0  0  0  0
  -37.0150  161.3870   -9.6480 C   0  0  0  0  0  0  0  0  0  0  0  0
  -36.4010  160.1880   -9.2280 C   0  0  0  0  0  0  0  0  0  0  0  0
  -36.3480  159.0580  -10.0630 C   0  0  0  0  0  0  0  0  0  0  0  0
  -35.6680  157.8520   -9.4930 C   0  0  0  0  0  0  0  0  0  0  0  0
  -34.3560  157.6400   -9.7940 N   0  0  0  0  0  0  0  0  0  0  0  0
  -36.2640  157.0610   -8.7690 O   0  0  0  0  0  0  0  0  0  0  0  0
  -38.1765  156.8766  -11.0204 H   0  0  0  0  0  0  0  0  0  0  0  0
  -38.8227  157.5049  -12.5742 H   0  0  0  0  0  0  0  0  0  0  0  0
  -37.6439  156.1495  -12.5742 H   0  0  0  0  0  0  0  0  0  0  0  0
  -37.9762  160.3906  -12.7504 H   0  0  0  0  0  0  0  0  0  0  0  0
  -38.7051  164.5663  -10.9958 H   0  0  0  0  0  0  0  0  0  0  0  0
  -37.7375  164.6184   -8.7252 H   0  0  0  0  0  0  0  0  0  0  0  0
  -38.0221  160.3350   -7.0675 H   0  0  0  0  0  0  0  0  0  0  0  0
  -39.4545  160.0622   -5.0454 H   0  0  0  0  0  0  0  0  0  0  0  0
  -40.6000  162.3980   -3.0660 H   0  0  0  0  0  0  0  0  0  0  0  0
  -40.8320  162.2370   -0.9500 H   0  0  0  0  0  0  0  0  0  0  0  0
  -39.5112  161.0726    0.5282 H   0  0  0  0  0  0  0  0  0  0  0  0
  -41.7810  160.3135    2.0695 H   0  0  0  0  0  0  0  0  0  0  0  0
  -42.7703  160.6214    0.9086 H   0  0  0  0  0  0  0  0  0  0  0  0
  -40.4343  158.4072    0.9256 H   0  0  0  0  0  0  0  0  0  0  0  0
  -41.1876  158.3813   -0.4354 H   0  0  0  0  0  0  0  0  0  0  0  0
  -36.7830  164.2352   -5.6848 H   0  0  0  0  0  0  0  0  0  0  0  0
  -35.9536  160.1362   -8.2244 H   0  0  0  0  0  0  0  0  0  0  0  0
  -33.8980  156.8230   -9.4150 H   0  0  0  0  0  0  0  0  0  0  0  0
  -33.8420  158.2720  -10.3950 H   0  0  0  0  0  0  0  0  0  0  0  0
  1  2  1  0
  2  3  1  0
  3  4  1  0
  4  5  2  0
  5  6  1  0
  6  7  2  0
  7  8  1  0
  8  9  2  0
  9 10  1  0
 10 11  1  0
 11 12  1  0
 12 13  2  0
 13 14  1  0
 14 15  1  0
 15 16  1  0
 16 17  2  0
 16 18  1  0
 18 19  1  0
 19 20  1  0
 20 21  1  0
 14 22  2  0
 22 23  1  0
 22 24  1  0
  9 25  1  0
 25 26  2  0
 26 27  1  0
 27 28  1  0
 28 29  1  0
 28 30  2  0
 27  3  2  0
 25  5  1  0
 24 11  2  0
 21 19  1  0
  1 31  1  0
  1 32  1  0
  1 33  1  0
  4 34  1  0
  7 35  1  0
  8 36  1  0
 12 37  1  0
 13 38  1  0
 15 39  1  0
 18 40  1  0
 19 41  1  0
 20 42  1  0
 20 43  1  0
 21 44  1  0
 21 45  1  0
 24 46  1  0
 26 47  1  0
 29 48  1  0
 29 49  1  0
M  END
>  <meeko>  (6) 
{"is_sidechain": false}

>  <vina_affinity_kcal_mol>  (6) 
-8.497

>  <pose_rank>  (6) 
6

$$$$

     RDKit          3D

 49 52  0  0  0  0  0  0  0  0999 V2000
  -33.0360  157.5480    5.1840 C   0  0  0  0  0  0  0  0  0  0  0  0
  -33.7080  156.6690    4.2870 O   0  0  0  0  0  0  0  0  0  0  0  0
  -34.4210  155.6240    4.8190 C   0  0  0  0  0  0  0  0  0  0  0  0
  -33.8150  154.4640    5.3330 C   0  0  0  0  0  0  0  0  0  0  0  0
  -34.5460  153.4120    5.8700 C   0  0  0  0  0  0  0  0  0  0  0  0
  -33.8850  152.3390    6.3360 N   0  0  0  0  0  0  0  0  0  0  0  0
  -34.6000  151.3120    6.8460 C   0  0  0  0  0  0  0  0  0  0  0  0
  -35.9760  151.3030    6.9260 C   0  0  0  0  0  0  0  0  0  0  0  0
  -36.6510  152.4280    6.4650 C   0  0  0  0  0  0  0  0  0  0  0  0
  -38.0290  152.4650    6.4840 O   0  0  0  0  0  0  0  0  0  0  0  0
  -38.6970  151.6020    5.6420 C   0  0  0  0  0  0  0  0  0  0  0  0
  -38.6290  151.6740    4.2510 C   0  0  0  0  0  0  0  0  0  0  0  0
  -39.3160  150.7420    3.4630 C   0  0  0  0  0  0  0  0  0  0  0  0
  -40.0650  149.7220    4.0580 C   0  0  0  0  0  0  0  0  0  0  0  0
  -40.7700  148.7480    3.3130 N   0  0  0  0  0  0  0  0  0  0  0  0
  -40.2970  147.5490    2.8240 C   0  0  0  0  0  0  0  0  0  0  0  0
  -39.1400  147.1510    2.8750 O   0  0  0  0  0  0  0  0  0  0  0  0
  -41.3170  146.8280    2.2220 N   0  0  0  0  0  0  0  0  0  0  0  0
  -41.0870  145.5250    1.6750 C   0  0  0  0  0  0  0  0  0  0  0  0
  -42.2290  144.5690    1.4700 C   0  0  0  0  0  0  0  0  0  0  0  0
  -41.5500  145.1880    0.2840 C   0  0  0  0  0  0  0  0  0  0  0  0
  -40.0950  149.6450    5.4630 C   0  0  0  0  0  0  0  0  0  0  0  0
  -40.9830  148.3920    6.2670 Cl  0  0  0  0  0  0  0  0  0  0  0  0
  -39.4140  150.5750    6.2530 C   0  0  0  0  0  0  0  0  0  0  0  0
  -35.9470  153.5110    5.9040 C   0  0  0  0  0  0  0  0  0  0  0  0
  -36.5710  154.6670    5.3900 C   0  0  0  0  0  0  0  0  0  0  0  0
  -35.8230  155.7260    4.8470 C   0  0  0  0  0  0  0  0  0  0  0  0
  -36.6120  156.8930    4.3390 C   0  0  0  0  0  0  0  0  0  0  0  0
  -36.6760  158.0190    5.1040 N   0  0  0  0  0  0  0  0  0  0  0  0
  -37.1940  156.8530    3.2600 O   0  0  0  0  0  0  0  0  0  0  0  0
  -33.2597  157.2554    6.2205 H   0  0  0  0  0  0  0  0  0  0  0  0
  -31.9512  157.4882    5.0121 H   0  0  0  0  0  0  0  0  0  0  0  0
  -33.3782  158.5792    5.0121 H   0  0  0  0  0  0  0  0  0  0  0  0
  -32.7180  154.3865    5.3089 H   0  0  0  0  0  0  0  0  0  0  0  0
  -34.0529  150.4334    7.2184 H   0  0  0  0  0  0  0  0  0  0  0  0
  -36.5189  150.4397    7.3383 H   0  0  0  0  0  0  0  0  0  0  0  0
  -38.0340  152.4651    3.7713 H   0  0  0  0  0  0  0  0  0  0  0  0
  -39.2660  150.8130    2.3664 H   0  0  0  0  0  0  0  0  0  0  0  0
  -41.6770  149.0410    2.9760 H   0  0  0  0  0  0  0  0  0  0  0  0
  -42.2510  147.0300    2.5470 H   0  0  0  0  0  0  0  0  0  0  0  0
  -40.1250  145.4857    2.2069 H   0  0  0  0  0  0  0  0  0  0  0  0
  -42.0947  143.4983    1.6835 H   0  0  0  0  0  0  0  0  0  0  0  0
  -43.2674  144.5105    1.8281 H   0  0  0  0  0  0  0  0  0  0  0  0
  -40.9178  144.5711   -0.3716 H   0  0  0  0  0  0  0  0  0  0  0  0
  -41.8845  145.7710   -0.5868 H   0  0  0  0  0  0  0  0  0  0  0  0
  -39.4437  150.4969    7.3498 H   0  0  0  0  0  0  0  0  0  0  0  0
  -37.6682  154.7414    5.4147 H   0  0  0  0  0  0  0  0  0  0  0  0
  -37.2120  158.8050    4.7650 H   0  0  0  0  0  0  0  0  0  0  0  0
  -36.2110  158.0780    6.0010 H   0  0  0  0  0  0  0  0  0  0  0  0
  1  2  1  0
  2  3  1  0
  3  4  1  0
  4  5  2  0
  5  6  1  0
  6  7  2  0
  7  8  1  0
  8  9  2  0
  9 10  1  0
 10 11  1  0
 11 12  1  0
 12 13  2  0
 13 14  1  0
 14 15  1  0
 15 16  1  0
 16 17  2  0
 16 18  1  0
 18 19  1  0
 19 20  1  0
 20 21  1  0
 14 22  2  0
 22 23  1  0
 22 24  1  0
  9 25  1  0
 25 26  2  0
 26 27  1  0
 27 28  1  0
 28 29  1  0
 28 30  2  0
 27  3  2  0
 25  5  1  0
 24 11  2  0
 21 19  1  0
  1 31  1  0
  1 32  1  0
  1 33  1  0
  4 34  1  0
  7 35  1  0
  8 36  1  0
 12 37  1  0
 13 38  1  0
 15 39  1  0
 18 40  1  0
 19 41  1  0
 20 42  1  0
 20 43  1  0
 21 44  1  0
 21 45  1  0
 24 46  1  0
 26 47  1  0
 29 48  1  0
 29 49  1  0
M  END
>  <meeko>  (7) 
{"is_sidechain": false}

>  <vina_affinity_kcal_mol>  (7) 
-8.472

>  <pose_rank>  (7) 
7

$$$$

     RDKit          3D

 49 52  0  0  0  0  0  0  0  0999 V2000
  -40.8020  146.6510    4.3540 C   0  0  0  0  0  0  0  0  0  0  0  0
  -40.9480  147.9150    4.9930 O   0  0  0  0  0  0  0  0  0  0  0  0
  -39.8180  148.6660    5.2080 C   0  0  0  0  0  0  0  0  0  0  0  0
  -38.8530  148.3410    6.1760 C   0  0  0  0  0  0  0  0  0  0  0  0
  -37.7120  149.1070    6.3830 C   0  0  0  0  0  0  0  0  0  0  0  0
  -36.8420  148.7230    7.3330 N   0  0  0  0  0  0  0  0  0  0  0  0
  -35.7410  149.4780    7.5420 C   0  0  0  0  0  0  0  0  0  0  0  0
  -35.4500  150.6200    6.8280 C   0  0  0  0  0  0  0  0  0  0  0  0
  -36.3420  150.9950    5.8290 C   0  0  0  0  0  0  0  0  0  0  0  0
  -36.1260  152.1480    5.1040 O   0  0  0  0  0  0  0  0  0  0  0  0
  -36.2680  153.3480    5.7650 C   0  0  0  0  0  0  0  0  0  0  0  0
  -37.4560  153.7580    6.3710 C   0  0  0  0  0  0  0  0  0  0  0  0
  -37.5130  154.9820    7.0490 C   0  0  0  0  0  0  0  0  0  0  0  0
  -36.3830  155.8000    7.1400 C   0  0  0  0  0  0  0  0  0  0  0  0
  -36.3800  157.0400    7.8200 N   0  0  0  0  0  0  0  0  0  0  0  0
  -36.6830  158.2850    7.3100 C   0  0  0  0  0  0  0  0  0  0  0  0
  -36.9260  158.5500    6.1390 O   0  0  0  0  0  0  0  0  0  0  0  0
  -36.6550  159.2450    8.3110 N   0  0  0  0  0  0  0  0  0  0  0  0
  -36.9800  160.6130    8.0410 C   0  0  0  0  0  0  0  0  0  0  0  0
  -38.0710  161.3060    8.8090 C   0  0  0  0  0  0  0  0  0  0  0  0
  -36.6380  161.6890    9.0350 C   0  0  0  0  0  0  0  0  0  0  0  0
  -35.1850  155.3540    6.5510 C   0  0  0  0  0  0  0  0  0  0  0  0
  -33.7390  156.3050    6.6460 Cl  0  0  0  0  0  0  0  0  0  0  0  0
  -35.1240  154.1350    5.8700 C   0  0  0  0  0  0  0  0  0  0  0  0
  -37.5150  150.2510    5.5940 C   0  0  0  0  0  0  0  0  0  0  0  0
  -38.4760  150.5930    4.6200 C   0  0  0  0  0  0  0  0  0  0  0  0
  -39.6270  149.8130    4.4170 C   0  0  0  0  0  0  0  0  0  0  0  0
  -40.5630  150.2890    3.3500 C   0  0  0  0  0  0  0  0  0  0  0  0
  -41.8930  150.3660    3.6360 N   0  0  0  0  0  0  0  0  0  0  0  0
  -40.1590  150.6060    2.2360 O   0  0  0  0  0  0  0  0  0  0  0  0
  -40.7110  145.8631    5.1162 H   0  0  0  0  0  0  0  0  0  0  0  0
  -41.6833  146.4536    3.7261 H   0  0  0  0  0  0  0  0  0  0  0  0
  -39.8989  146.6597    3.7261 H   0  0  0  0  0  0  0  0  0  0  0  0
  -39.0067  147.4446    6.7947 H   0  0  0  0  0  0  0  0  0  0  0  0
  -35.0372  149.1631    8.3265 H   0  0  0  0  0  0  0  0  0  0  0  0
  -34.5474  151.2120    7.0399 H   0  0  0  0  0  0  0  0  0  0  0  0
  -38.3494  153.1187    6.3161 H   0  0  0  0  0  0  0  0  0  0  0  0
  -38.4564  155.3030    7.5147 H   0  0  0  0  0  0  0  0  0  0  0  0
  -35.9620  157.0250    8.7400 H   0  0  0  0  0  0  0  0  0  0  0  0
  -36.8240  158.9100    9.2480 H   0  0  0  0  0  0  0  0  0  0  0  0
  -36.7675  160.4401    6.9757 H   0  0  0  0  0  0  0  0  0  0  0  0
  -38.7507  162.0001    8.2931 H   0  0  0  0  0  0  0  0  0  0  0  0
  -38.8981  160.9750    9.4543 H   0  0  0  0  0  0  0  0  0  0  0  0
  -36.2675  162.6636    8.6846 H   0  0  0  0  0  0  0  0  0  0  0  0
  -35.9801  161.7547    9.9141 H   0  0  0  0  0  0  0  0  0  0  0  0
  -34.1782  153.7993    5.4198 H   0  0  0  0  0  0  0  0  0  0  0  0
  -38.3208  151.4915    4.0047 H   0  0  0  0  0  0  0  0  0  0  0  0
  -42.5270  150.6820    2.9150 H   0  0  0  0  0  0  0  0  0  0  0  0
  -42.2560  150.1040    4.5440 H   0  0  0  0  0  0  0  0  0  0  0  0
  1  2  1  0
  2  3  1  0
  3  4  1  0
  4  5  2  0
  5  6  1  0
  6  7  2  0
  7  8  1  0
  8  9  2  0
  9 10  1  0
 10 11  1  0
 11 12  1  0
 12 13  2  0
 13 14  1  0
 14 15  1  0
 15 16  1  0
 16 17  2  0
 16 18  1  0
 18 19  1  0
 19 20  1  0
 20 21  1  0
 14 22  2  0
 22 23  1  0
 22 24  1  0
  9 25  1  0
 25 26  2  0
 26 27  1  0
 27 28  1  0
 28 29  1  0
 28 30  2  0
 27  3  2  0
 25  5  1  0
 24 11  2  0
 21 19  1  0
  1 31  1  0
  1 32  1  0
  1 33  1  0
  4 34  1  0
  7 35  1  0
  8 36  1  0
 12 37  1  0
 13 38  1  0
 15 39  1  0
 18 40  1  0
 19 41  1  0
 20 42  1  0
 20 43  1  0
 21 44  1  0
 21 45  1  0
 24 46  1  0
 26 47  1  0
 29 48  1  0
 29 49  1  0
M  END
>  <meeko>  (8) 
{"is_sidechain": false}

>  <vina_affinity_kcal_mol>  (8) 
-8.437

>  <pose_rank>  (8) 
8

$$$$

     RDKit          3D

 49 52  0  0  0  0  0  0  0  0999 V2000
  -37.7640  166.1960  -11.5860 C   0  0  0  0  0  0  0  0  0  0  0  0
  -37.6530  164.8090  -11.2830 O   0  0  0  0  0  0  0  0  0  0  0  0
  -37.8330  164.4150   -9.9800 C   0  0  0  0  0  0  0  0  0  0  0  0
  -37.8500  165.3160   -8.9020 C   0  0  0  0  0  0  0  0  0  0  0  0
  -38.0350  164.9080   -7.5870 C   0  0  0  0  0  0  0  0  0  0  0  0
  -38.0350  165.8380   -6.6160 N   0  0  0  0  0  0  0  0  0  0  0  0
  -38.2010  165.4350   -5.3380 C   0  0  0  0  0  0  0  0  0  0  0  0
  -38.3820  164.1200   -4.9660 C   0  0  0  0  0  0  0  0  0  0  0  0
  -38.4070  163.1670   -5.9790 C   0  0  0  0  0  0  0  0  0  0  0  0
  -38.5470  161.8310   -5.6700 O   0  0  0  0  0  0  0  0  0  0  0  0
  -38.7190  161.5020   -4.3430 C   0  0  0  0  0  0  0  0  0  0  0  0
  -38.9170  162.4450   -3.3340 C   0  0  0  0  0  0  0  0  0  0  0  0
  -39.1130  162.0300   -2.0110 C   0  0  0  0  0  0  0  0  0  0  0  0
  -39.1260  160.6700   -1.6860 C   0  0  0  0  0  0  0  0  0  0  0  0
  -39.3270  160.1940   -0.3700 N   0  0  0  0  0  0  0  0  0  0  0  0
  -40.4870  160.2260    0.3740 C   0  0  0  0  0  0  0  0  0  0  0  0
  -41.5410  160.7610    0.0520 O   0  0  0  0  0  0  0  0  0  0  0  0
  -40.3100  159.5790    1.5880 N   0  0  0  0  0  0  0  0  0  0  0  0
  -41.3860  159.4390    2.5220 C   0  0  0  0  0  0  0  0  0  0  0  0
  -42.7640  159.0620    2.0510 C   0  0  0  0  0  0  0  0  0  0  0  0
  -41.9490  158.0800    2.8400 C   0  0  0  0  0  0  0  0  0  0  0  0
  -38.9570  159.7320   -2.7220 C   0  0  0  0  0  0  0  0  0  0  0  0
  -38.9870  158.0300   -2.3950 Cl  0  0  0  0  0  0  0  0  0  0  0  0
  -38.7590  160.1430   -4.0430 C   0  0  0  0  0  0  0  0  0  0  0  0
  -38.2130  163.5400   -7.3240 C   0  0  0  0  0  0  0  0  0  0  0  0
  -38.1960  162.6220   -8.3950 C   0  0  0  0  0  0  0  0  0  0  0  0
  -38.0080  163.0440   -9.7220 C   0  0  0  0  0  0  0  0  0  0  0  0
  -38.0130  161.9660  -10.7610 C   0  0  0  0  0  0  0  0  0  0  0  0
  -39.1060  161.8400  -11.5650 N   0  0  0  0  0  0  0  0  0  0  0  0
  -37.0630  161.2030  -10.8980 O   0  0  0  0  0  0  0  0  0  0  0  0
  -37.8102  166.7731  -10.6507 H   0  0  0  0  0  0  0  0  0  0  0  0
  -36.8885  166.5148  -12.1707 H   0  0  0  0  0  0  0  0  0  0  0  0
  -38.6791  166.3715  -12.1707 H   0  0  0  0  0  0  0  0  0  0  0  0
  -37.7112  166.3877   -9.1076 H   0  0  0  0  0  0  0  0  0  0  0  0
  -38.1912  166.2003   -4.5480 H   0  0  0  0  0  0  0  0  0  0  0  0
  -38.5019  163.8356   -3.9102 H   0  0  0  0  0  0  0  0  0  0  0  0
  -38.9192  163.5175   -3.5784 H   0  0  0  0  0  0  0  0  0  0  0  0
  -39.2581  162.7807   -1.2202 H   0  0  0  0  0  0  0  0  0  0  0  0
  -38.4840  159.9420    0.1290 H   0  0  0  0  0  0  0  0  0  0  0  0
  -39.5890  158.8730    1.6100 H   0  0  0  0  0  0  0  0  0  0  0  0
  -40.9643  160.2657    3.1125 H   0  0  0  0  0  0  0  0  0  0  0  0
  -43.6482  159.5330    2.5053 H   0  0  0  0  0  0  0  0  0  0  0  0
  -43.2741  159.0431    1.0766 H   0  0  0  0  0  0  0  0  0  0  0  0
  -42.2358  157.8315    3.8725 H   0  0  0  0  0  0  0  0  0  0  0  0
  -41.6146  157.0439    2.6833 H   0  0  0  0  0  0  0  0  0  0  0  0
  -38.6354  159.3967   -4.8416 H   0  0  0  0  0  0  0  0  0  0  0  0
  -38.3331  161.5507   -8.1864 H   0  0  0  0  0  0  0  0  0  0  0  0
  -39.1130  161.1090  -12.2620 H   0  0  0  0  0  0  0  0  0  0  0  0
  -39.9080  162.4510  -11.4690 H   0  0  0  0  0  0  0  0  0  0  0  0
  1  2  1  0
  2  3  1  0
  3  4  1  0
  4  5  2  0
  5  6  1  0
  6  7  2  0
  7  8  1  0
  8  9  2  0
  9 10  1  0
 10 11  1  0
 11 12  1  0
 12 13  2  0
 13 14  1  0
 14 15  1  0
 15 16  1  0
 16 17  2  0
 16 18  1  0
 18 19  1  0
 19 20  1  0
 20 21  1  0
 14 22  2  0
 22 23  1  0
 22 24  1  0
  9 25  1  0
 25 26  2  0
 26 27  1  0
 27 28  1  0
 28 29  1  0
 28 30  2  0
 27  3  2  0
 25  5  1  0
 24 11  2  0
 21 19  1  0
  1 31  1  0
  1 32  1  0
  1 33  1  0
  4 34  1  0
  7 35  1  0
  8 36  1  0
 12 37  1  0
 13 38  1  0
 15 39  1  0
 18 40  1  0
 19 41  1  0
 20 42  1  0
 20 43  1  0
 21 44  1  0
 21 45  1  0
 24 46  1  0
 26 47  1  0
 29 48  1  0
 29 49  1  0
M  END
>  <meeko>  (9) 
{"is_sidechain": false}

>  <vina_affinity_kcal_mol>  (9) 
-8.394

>  <pose_rank>  (9) 
9

$$$$

     RDKit          3D

 49 52  0  0  0  0  0  0  0  0999 V2000
  -38.6100  147.1680   -2.4900 C   0  0  0  0  0  0  0  0  0  0  0  0
  -37.6560  147.8760   -1.7050 O   0  0  0  0  0  0  0  0  0  0  0  0
  -37.8470  147.9270   -0.3460 C   0  0  0  0  0  0  0  0  0  0  0  0
  -39.0730  147.6180    0.2690 C   0  0  0  0  0  0  0  0  0  0  0  0
  -39.2560  147.6720    1.6450 C   0  0  0  0  0  0  0  0  0  0  0  0
  -40.4630  147.3630    2.1480 N   0  0  0  0  0  0  0  0  0  0  0  0
  -40.6410  147.4300    3.4850 C   0  0  0  0  0  0  0  0  0  0  0  0
  -39.6490  147.7900    4.3720 C   0  0  0  0  0  0  0  0  0  0  0  0
  -38.3960  148.0830    3.8460 C   0  0  0  0  0  0  0  0  0  0  0  0
  -37.3720  148.4860    4.6770 O   0  0  0  0  0  0  0  0  0  0  0  0
  -37.3640  149.8030    5.0800 C   0  0  0  0  0  0  0  0  0  0  0  0
  -38.2360  150.7690    4.5770 C   0  0  0  0  0  0  0  0  0  0  0  0
  -38.1840  152.0830    5.0580 C   0  0  0  0  0  0  0  0  0  0  0  0
  -37.2720  152.4410    6.0550 C   0  0  0  0  0  0  0  0  0  0  0  0
  -37.1810  153.7490    6.5850 N   0  0  0  0  0  0  0  0  0  0  0  0
  -36.3580  154.7740    6.1720 C   0  0  0  0  0  0  0  0  0  0  0  0
  -35.4830  154.7030    5.3170 O   0  0  0  0  0  0  0  0  0  0  0  0
  -36.6250  155.9350    6.8810 N   0  0  0  0  0  0  0  0  0  0  0  0
  -35.9300  157.1560    6.6040 C   0  0  0  0  0  0  0  0  0  0  0  0
  -36.5560  158.2140    5.7390 C   0  0  0  0  0  0  0  0  0  0  0  0
  -36.3930  158.4530    7.2110 C   0  0  0  0  0  0  0  0  0  0  0  0
  -36.4230  151.4450    6.5750 C   0  0  0  0  0  0  0  0  0  0  0  0
  -35.2850  151.8120    7.8290 Cl  0  0  0  0  0  0  0  0  0  0  0  0
  -36.4690  150.1340    6.0950 C   0  0  0  0  0  0  0  0  0  0  0  0
  -38.1730  148.0500    2.4550 C   0  0  0  0  0  0  0  0  0  0  0  0
  -36.9370  148.3660    1.8540 C   0  0  0  0  0  0  0  0  0  0  0  0
  -36.7610  148.3090    0.4610 C   0  0  0  0  0  0  0  0  0  0  0  0
  -35.3980  148.6690   -0.0440 C   0  0  0  0  0  0  0  0  0  0  0  0
  -35.2800  149.7030   -0.9230 N   0  0  0  0  0  0  0  0  0  0  0  0
  -34.3980  148.0550    0.3150 O   0  0  0  0  0  0  0  0  0  0  0  0
  -39.3148  146.6450   -1.8269 H   0  0  0  0  0  0  0  0  0  0  0  0
  -39.1614  147.8773   -3.1248 H   0  0  0  0  0  0  0  0  0  0  0  0
  -38.0908  146.4348   -3.1248 H   0  0  0  0  0  0  0  0  0  0  0  0
  -39.9216  147.3215   -0.3650 H   0  0  0  0  0  0  0  0  0  0  0  0
  -41.6339  147.1833    3.8892 H   0  0  0  0  0  0  0  0  0  0  0  0
  -39.8414  147.8433    5.4537 H   0  0  0  0  0  0  0  0  0  0  0  0
  -38.9663  150.4976    3.8005 H   0  0  0  0  0  0  0  0  0  0  0  0
  -38.8674  152.8408    4.6473 H   0  0  0  0  0  0  0  0  0  0  0  0
  -37.6680  153.8920    7.4590 H   0  0  0  0  0  0  0  0  0  0  0  0
  -37.5570  156.0150    7.2610 H   0  0  0  0  0  0  0  0  0  0  0  0
  -34.9825  156.5974    6.5873 H   0  0  0  0  0  0  0  0  0  0  0  0
  -35.9385  158.7722    5.0199 H   0  0  0  0  0  0  0  0  0  0  0  0
  -37.4017  158.2428    5.0361 H   0  0  0  0  0  0  0  0  0  0  0  0
  -35.6558  159.1859    7.5708 H   0  0  0  0  0  0  0  0  0  0  0  0
  -37.0691  158.7291    8.0336 H   0  0  0  0  0  0  0  0  0  0  0  0
  -35.8022  149.3672    6.5161 H   0  0  0  0  0  0  0  0  0  0  0  0
  -36.0909  148.6641    2.4905 H   0  0  0  0  0  0  0  0  0  0  0  0
  -34.3620  149.9430   -1.2690 H   0  0  0  0  0  0  0  0  0  0  0  0
  -36.0890  150.2230   -1.2420 H   0  0  0  0  0  0  0  0  0  0  0  0
  1  2  1  0
  2  3  1  0
  3  4  1  0
  4  5  2  0
  5  6  1  0
  6  7  2  0
  7  8  1  0
  8  9  2  0
  9 10  1  0
 10 11  1  0
 11 12  1  0
 12 13  2  0
 13 14  1  0
 14 15  1  0
 15 16  1  0
 16 17  2  0
 16 18  1  0
 18 19  1  0
 19 20  1  0
 20 21  1  0
 14 22  2  0
 22 23  1  0
 22 24  1  0
  9 25  1  0
 25 26  2  0
 26 27  1  0
 27 28  1  0
 28 29  1  0
 28 30  2  0
 27  3  2  0
 25  5  1  0
 24 11  2  0
 21 19  1  0
  1 31  1  0
  1 32  1  0
  1 33  1  0
  4 34  1  0
  7 35  1  0
  8 36  1  0
 12 37  1  0
 13 38  1  0
 15 39  1  0
 18 40  1  0
 19 41  1  0
 20 42  1  0
 20 43  1  0
 21 44  1  0
 21 45  1  0
 24 46  1  0
 26 47  1  0
 29 48  1  0
 29 49  1  0
M  END
>  <meeko>  (10) 
{"is_sidechain": false}

>  <vina_affinity_kcal_mol>  (10) 
-7.959

>  <pose_rank>  (10) 
10

$$$$
