
     RDKit          3D

 51 54  0  0  0  0  0  0  0  0999 V2000
   -8.0543    1.1816    1.6857 C   0  0  0  0  0  0  0  0  0  0  0  0
   -7.2407    0.0280    1.5248 O   0  0  0  0  0  0  0  0  0  0  0  0
   -6.1174    0.1439    0.7433 C   0  0  0  0  0  0  0  0  0  0  0  0
   -5.7305    1.3162    0.0831 C   0  0  0  0  0  0  0  0  0  0  0  0
   -4.5835    1.3772   -0.6957 C   0  0  0  0  0  0  0  0  0  0  0  0
   -4.2765    2.5377   -1.3026 N   0  0  0  0  0  0  0  0  0  0  0  0
   -3.1665    2.5911   -2.0696 C   0  0  0  0  0  0  0  0  0  0  0  0
   -2.3185    1.5234   -2.2636 C   0  0  0  0  0  0  0  0  0  0  0  0
   -2.6286    0.3333   -1.6129 C   0  0  0  0  0  0  0  0  0  0  0  0
   -1.8386   -0.7835   -1.7980 O   0  0  0  0  0  0  0  0  0  0  0  0
   -0.5083   -0.6796   -1.4574 C   0  0  0  0  0  0  0  0  0  0  0  0
   -0.0535   -0.0078   -0.3217 C   0  0  0  0  0  0  0  0  0  0  0  0
    1.3147    0.0273   -0.0250 C   0  0  0  0  0  0  0  0  0  0  0  0
    2.2397   -0.6163   -0.8515 C   0  0  0  0  0  0  0  0  0  0  0  0
    3.6339   -0.6230   -0.6020 N   0  0  0  0  0  0  0  0  0  0  0  0
    4.3359    0.1238    0.3350 C   0  0  0  0  0  0  0  0  0  0  0  0
    3.8345    0.9783    1.0518 O   0  0  0  0  0  0  0  0  0  0  0  0
    5.6699   -0.2445    0.3356 N   0  0  0  0  0  0  0  0  0  0  0  0
    6.6533    0.3574    1.0989 C   0  0  0  0  0  0  0  0  0  0  0  0
    7.9887   -0.1146    1.1596 C   0  0  0  0  0  0  0  0  0  0  0  0
    8.6290    0.7558    2.0057 C   0  0  0  0  0  0  0  0  0  0  0  0
   10.0026    0.8748    2.5224 C   0  0  0  0  0  0  0  0  0  0  0  0
    7.7429    1.6946    2.4254 O   0  0  0  0  0  0  0  0  0  0  0  0
    6.5103    1.4482    1.8561 N   0  0  0  0  0  0  0  0  0  0  0  0
    1.7588   -1.3160   -1.9753 C   0  0  0  0  0  0  0  0  0  0  0  0
    2.8465   -2.1589   -3.0291 Cl  0  0  0  0  0  0  0  0  0  0  0  0
    0.3956   -1.3522   -2.2758 C   0  0  0  0  0  0  0  0  0  0  0  0
   -3.7887    0.2235   -0.8214 C   0  0  0  0  0  0  0  0  0  0  0  0
   -4.1717   -0.9651   -0.1600 C   0  0  0  0  0  0  0  0  0  0  0  0
   -5.3286   -1.0117    0.6203 C   0  0  0  0  0  0  0  0  0  0  0  0
   -5.7694   -2.1221    1.2941 O   0  0  0  0  0  0  0  0  0  0  0  0
   -4.9838   -3.3024    1.2111 C   0  0  0  0  0  0  0  0  0  0  0  0
   -8.4723    1.5067    0.7273 H   0  0  0  0  0  0  0  0  0  0  0  0
   -8.8906    0.9124    2.3381 H   0  0  0  0  0  0  0  0  0  0  0  0
   -7.5007    1.9911    2.1727 H   0  0  0  0  0  0  0  0  0  0  0  0
   -6.3190    2.2250    0.1570 H   0  0  0  0  0  0  0  0  0  0  0  0
   -2.9772    3.5511   -2.5418 H   0  0  0  0  0  0  0  0  0  0  0  0
   -1.4483    1.6169   -2.9018 H   0  0  0  0  0  0  0  0  0  0  0  0
   -0.7476    0.4881    0.3530 H   0  0  0  0  0  0  0  0  0  0  0  0
    1.6218    0.5591    0.8716 H   0  0  0  0  0  0  0  0  0  0  0  0
    4.1805   -1.1198   -1.2923 H   0  0  0  0  0  0  0  0  0  0  0  0
    5.9384   -1.0780   -0.1578 H   0  0  0  0  0  0  0  0  0  0  0  0
    8.4239   -0.9667    0.6613 H   0  0  0  0  0  0  0  0  0  0  0  0
   10.4407    1.8342    2.2308 H   0  0  0  0  0  0  0  0  0  0  0  0
   10.6401    0.0764    2.1302 H   0  0  0  0  0  0  0  0  0  0  0  0
   10.0089    0.8096    3.6147 H   0  0  0  0  0  0  0  0  0  0  0  0
    0.0352   -1.8966   -3.1442 H   0  0  0  0  0  0  0  0  0  0  0  0
   -3.5430   -1.8425   -0.2726 H   0  0  0  0  0  0  0  0  0  0  0  0
   -4.9288   -3.6683    0.1806 H   0  0  0  0  0  0  0  0  0  0  0  0
   -5.4752   -4.0742    1.8114 H   0  0  0  0  0  0  0  0  0  0  0  0
   -3.9845   -3.1426    1.6293 H   0  0  0  0  0  0  0  0  0  0  0  0
  1  2  1  0
  2  3  1  0
  3  4  1  0
  4  5  2  0
  5  6  1  0
  6  7  2  0
  7  8  1  0
  8  9  2  0
  9 10  1  0
 10 11  1  0
 11 12  1  0
 12 13  2  0
 13 14  1  0
 14 15  1  0
 15 16  1  0
 16 17  2  0
 16 18  1  0
 18 19  1  0
 19 20  1  0
 20 21  2  0
 21 22  1  0
 21 23  1  0
 23 24  1  0
 14 25  2  0
 25 26  1  0
 25 27  1  0
  9 28  1  0
 28 29  2  0
 29 30  1  0
 30 31  1  0
 31 32  1  0
 30  3  2  0
 28  5  1  0
 27 11  2  0
 24 19  2  0
  1 33  1  0
  1 34  1  0
  1 35  1  0
  4 36  1  0
  7 37  1  0
  8 38  1  0
 12 39  1  0
 13 40  1  0
 15 41  1  0
 18 42  1  0
 20 43  1  0
 22 44  1  0
 22 45  1  0
 22 46  1  0
 27 47  1  0
 29 48  1  0
 32 49  1  0
 32 50  1  0
 32 51  1  0
M  END
$$$$
