
     RDKit          3D

 51 54  0  0  0  0  0  0  0  0999 V2000
   -7.4110    4.8690  -18.4270 C   0  0  0  0  0  0  0  0  0  0  0  0
   -7.5100    3.5860  -17.8250 O   0  0  0  0  0  0  0  0  0  0  0  0
   -8.3950    3.4370  -16.7840 C   0  0  0  0  0  0  0  0  0  0  0  0
   -9.5120    4.2540  -16.5720 C   0  0  0  0  0  0  0  0  0  0  0  0
  -10.3740    4.0580  -15.5020 C   0  0  0  0  0  0  0  0  0  0  0  0
  -11.4260    4.8860  -15.3620 N   0  0  0  0  0  0  0  0  0  0  0  0
  -12.2560    4.7000  -14.3130 C   0  0  0  0  0  0  0  0  0  0  0  0
  -12.0950    3.7030  -13.3760 C   0  0  0  0  0  0  0  0  0  0  0  0
  -11.0190    2.8370  -13.5420 C   0  0  0  0  0  0  0  0  0  0  0  0
  -10.7820    1.8420  -12.6160 O   0  0  0  0  0  0  0  0  0  0  0  0
  -11.8410    1.4460  -11.8280 C   0  0  0  0  0  0  0  0  0  0  0  0
  -13.1210    1.9920  -11.9280 C   0  0  0  0  0  0  0  0  0  0  0  0
  -14.1550    1.5140  -11.1120 C   0  0  0  0  0  0  0  0  0  0  0  0
  -13.9240    0.4830  -10.1980 C   0  0  0  0  0  0  0  0  0  0  0  0
  -14.9280   -0.0470   -9.3510 N   0  0  0  0  0  0  0  0  0  0  0  0
  -15.5760    0.5850   -8.2990 C   0  0  0  0  0  0  0  0  0  0  0  0
  -15.3050    1.7080   -7.8970 O   0  0  0  0  0  0  0  0  0  0  0  0
  -16.5640   -0.2360   -7.7850 N   0  0  0  0  0  0  0  0  0  0  0  0
  -17.3440    0.0640   -6.6840 C   0  0  0  0  0  0  0  0  0  0  0  0
  -18.6700    0.5590   -6.7810 C   0  0  0  0  0  0  0  0  0  0  0  0
  -19.0810    0.7110   -5.4800 C   0  0  0  0  0  0  0  0  0  0  0  0
  -20.3210    1.1770   -4.8360 C   0  0  0  0  0  0  0  0  0  0  0  0
  -18.0760    0.3300   -4.6520 O   0  0  0  0  0  0  0  0  0  0  0  0
  -16.9930   -0.0780   -5.4030 N   0  0  0  0  0  0  0  0  0  0  0  0
  -12.6330   -0.0770  -10.1350 C   0  0  0  0  0  0  0  0  0  0  0  0
  -12.2800   -1.3760   -9.0440 Cl  0  0  0  0  0  0  0  0  0  0  0  0
  -11.5980    0.3970  -10.9440 C   0  0  0  0  0  0  0  0  0  0  0  0
  -10.1130    3.0050  -14.6080 C   0  0  0  0  0  0  0  0  0  0  0  0
   -8.9870    2.1760  -14.8120 C   0  0  0  0  0  0  0  0  0  0  0  0
   -8.1280    2.3850  -15.8930 C   0  0  0  0  0  0  0  0  0  0  0  0
   -7.0180    1.6270  -16.1630 O   0  0  0  0  0  0  0  0  0  0  0  0
   -7.1260    0.2190  -16.0200 C   0  0  0  0  0  0  0  0  0  0  0  0
   -7.3516    5.6383  -17.6430 H   0  0  0  0  0  0  0  0  0  0  0  0
   -6.5069    4.9120  -19.0521 H   0  0  0  0  0  0  0  0  0  0  0  0
   -8.2978    5.0502  -19.0521 H   0  0  0  0  0  0  0  0  0  0  0  0
   -9.7125    5.0762  -17.2747 H   0  0  0  0  0  0  0  0  0  0  0  0
  -13.1100    5.3841  -14.2002 H   0  0  0  0  0  0  0  0  0  0  0  0
  -12.7898    3.5959  -12.5300 H   0  0  0  0  0  0  0  0  0  0  0  0
  -13.3188    2.7991  -12.6487 H   0  0  0  0  0  0  0  0  0  0  0  0
  -15.1594    1.9553  -11.1920 H   0  0  0  0  0  0  0  0  0  0  0  0
  -15.0680   -1.0440   -9.4410 H   0  0  0  0  0  0  0  0  0  0  0  0
  -16.8240   -1.0570   -8.3040 H   0  0  0  0  0  0  0  0  0  0  0  0
  -19.2420    0.7735   -7.6958 H   0  0  0  0  0  0  0  0  0  0  0  0
  -20.2052    1.1335   -3.7430 H   0  0  0  0  0  0  0  0  0  0  0  0
  -20.5260    2.2135   -5.1420 H   0  0  0  0  0  0  0  0  0  0  0  0
  -21.1579    0.5320   -5.1420 H   0  0  0  0  0  0  0  0  0  0  0  0
  -10.5970   -0.0551  -10.8836 H   0  0  0  0  0  0  0  0  0  0  0  0
   -8.7842    1.3544  -14.1093 H   0  0  0  0  0  0  0  0  0  0  0  0
   -7.1459   -0.0405  -14.9512 H   0  0  0  0  0  0  0  0  0  0  0  0
   -8.0534   -0.1281  -16.4990 H   0  0  0  0  0  0  0  0  0  0  0  0
   -6.2624   -0.2655  -16.4990 H   0  0  0  0  0  0  0  0  0  0  0  0
  1  2  1  0
  2  3  1  0
  3  4  1  0
  4  5  2  0
  5  6  1  0
  6  7  2  0
  7  8  1  0
  8  9  2  0
  9 10  1  0
 10 11  1  0
 11 12  1  0
 12 13  2  0
 13 14  1  0
 14 15  1  0
 15 16  1  0
 16 17  2  0
 16 18  1  0
 18 19  1  0
 19 20  1  0
 20 21  2  0
 21 22  1  0
 21 23  1  0
 23 24  1  0
 14 25  2  0
 25 26  1  0
 25 27  1  0
  9 28  1  0
 28 29  2  0
 29 30  1  0
 30 31  1  0
 31 32  1  0
 30  3  2  0
 28  5  1  0
 27 11  2  0
 24 19  2  0
  1 33  1  0
  1 34  1  0
  1 35  1  0
  4 36  1  0
  7 37  1  0
  8 38  1  0
 12 39  1  0
 13 40  1  0
 15 41  1  0
 18 42  1  0
 20 43  1  0
 22 44  1  0
 22 45  1  0
 22 46  1  0
 27 47  1  0
 29 48  1  0
 32 49  1  0
 32 50  1  0
 32 51  1  0
M  END
>  <meeko>  (1) 
{"is_sidechain": false}

>  <vina_affinity_kcal_mol>  (1) 
-9.359

>  <pose_rank>  (1) 
1

$$$$

     RDKit          3D

 51 54  0  0  0  0  0  0  0  0999 V2000
  -12.9130    0.1070   -5.9220 C   0  0  0  0  0  0  0  0  0  0  0  0
  -13.4620   -0.4710   -7.0980 O   0  0  0  0  0  0  0  0  0  0  0  0
  -12.6060   -0.7210   -8.1440 C   0  0  0  0  0  0  0  0  0  0  0  0
  -11.2840   -1.1570   -7.9980 C   0  0  0  0  0  0  0  0  0  0  0  0
  -10.4630   -1.3940   -9.0920 C   0  0  0  0  0  0  0  0  0  0  0  0
   -9.2020   -1.8090   -8.8730 N   0  0  0  0  0  0  0  0  0  0  0  0
   -8.4010   -2.0270   -9.9390 C   0  0  0  0  0  0  0  0  0  0  0  0
   -8.8030   -1.8570  -11.2460 C   0  0  0  0  0  0  0  0  0  0  0  0
  -10.1160   -1.4510  -11.4640 C   0  0  0  0  0  0  0  0  0  0  0  0
  -10.5660   -1.2270  -12.7480 O   0  0  0  0  0  0  0  0  0  0  0  0
  -10.1240   -0.0870  -13.3840 C   0  0  0  0  0  0  0  0  0  0  0  0
   -8.9740   -0.0430  -14.1730 C   0  0  0  0  0  0  0  0  0  0  0  0
   -8.6050    1.1480  -14.8130 C   0  0  0  0  0  0  0  0  0  0  0  0
   -9.3850    2.3000  -14.6800 C   0  0  0  0  0  0  0  0  0  0  0  0
   -9.0700    3.5300  -15.3060 N   0  0  0  0  0  0  0  0  0  0  0  0
   -9.2910    3.8950  -16.6280 C   0  0  0  0  0  0  0  0  0  0  0  0
   -9.7410    3.1460  -17.4840 O   0  0  0  0  0  0  0  0  0  0  0  0
   -8.9360    5.2180  -16.8230 N   0  0  0  0  0  0  0  0  0  0  0  0
   -8.9630    5.8700  -18.0420 C   0  0  0  0  0  0  0  0  0  0  0  0
   -9.6490    7.0930  -18.2550 C   0  0  0  0  0  0  0  0  0  0  0  0
   -9.4200    7.3970  -19.5740 C   0  0  0  0  0  0  0  0  0  0  0  0
   -9.8200    8.4980  -20.4660 C   0  0  0  0  0  0  0  0  0  0  0  0
   -8.6440    6.4270  -20.1210 O   0  0  0  0  0  0  0  0  0  0  0  0
   -8.3560    5.4750  -19.1640 N   0  0  0  0  0  0  0  0  0  0  0  0
  -10.5590    2.2260  -13.9050 C   0  0  0  0  0  0  0  0  0  0  0  0
  -11.5880    3.6080  -13.7180 Cl  0  0  0  0  0  0  0  0  0  0  0  0
  -10.9290    1.0430  -13.2640 C   0  0  0  0  0  0  0  0  0  0  0  0
  -10.9810   -1.1900  -10.3830 C   0  0  0  0  0  0  0  0  0  0  0  0
  -12.3140   -0.7480  -10.5410 C   0  0  0  0  0  0  0  0  0  0  0  0
  -13.1280   -0.5130   -9.4310 C   0  0  0  0  0  0  0  0  0  0  0  0
  -14.4300   -0.0860   -9.4980 O   0  0  0  0  0  0  0  0  0  0  0  0
  -14.6930    1.1350  -10.1730 C   0  0  0  0  0  0  0  0  0  0  0  0
  -13.3625   -0.3663   -5.0366 H   0  0  0  0  0  0  0  0  0  0  0  0
  -11.8245   -0.0511   -5.9094 H   0  0  0  0  0  0  0  0  0  0  0  0
  -13.1269    1.1859   -5.9094 H   0  0  0  0  0  0  0  0  0  0  0  0
  -10.8836   -1.3166   -6.9860 H   0  0  0  0  0  0  0  0  0  0  0  0
   -7.3690   -2.3592   -9.7529 H   0  0  0  0  0  0  0  0  0  0  0  0
   -8.1131   -2.0352  -12.0840 H   0  0  0  0  0  0  0  0  0  0  0  0
   -8.3558   -0.9449  -14.2929 H   0  0  0  0  0  0  0  0  0  0  0  0
   -7.6922    1.1763  -15.4262 H   0  0  0  0  0  0  0  0  0  0  0  0
   -8.4840    4.1430  -14.7560 H   0  0  0  0  0  0  0  0  0  0  0  0
   -8.7530    5.7900  -16.0170 H   0  0  0  0  0  0  0  0  0  0  0  0
  -10.2350    7.6703  -17.5247 H   0  0  0  0  0  0  0  0  0  0  0  0
  -10.1342    9.3627  -19.8630 H   0  0  0  0  0  0  0  0  0  0  0  0
   -8.9682    8.7836  -21.1007 H   0  0  0  0  0  0  0  0  0  0  0  0
  -10.6565    8.1702  -21.1007 H   0  0  0  0  0  0  0  0  0  0  0  0
  -11.8520    1.0032  -12.6669 H   0  0  0  0  0  0  0  0  0  0  0  0
  -12.7158   -0.5869  -11.5522 H   0  0  0  0  0  0  0  0  0  0  0  0
  -14.8647    1.9324   -9.4349 H   0  0  0  0  0  0  0  0  0  0  0  0
  -13.8310    1.3985  -10.8035 H   0  0  0  0  0  0  0  0  0  0  0  0
  -15.5870    1.0202  -10.8035 H   0  0  0  0  0  0  0  0  0  0  0  0
  1  2  1  0
  2  3  1  0
  3  4  1  0
  4  5  2  0
  5  6  1  0
  6  7  2  0
  7  8  1  0
  8  9  2  0
  9 10  1  0
 10 11  1  0
 11 12  1  0
 12 13  2  0
 13 14  1  0
 14 15  1  0
 15 16  1  0
 16 17  2  0
 16 18  1  0
 18 19  1  0
 19 20  1  0
 20 21  2  0
 21 22  1  0
 21 23  1  0
 23 24  1  0
 14 25  2  0
 25 26  1  0
 25 27  1  0
  9 28  1  0
 28 29  2  0
 29 30  1  0
 30 31  1  0
 31 32  1  0
 30  3  2  0
 28  5  1  0
 27 11  2  0
 24 19  2  0
  1 33  1  0
  1 34  1  0
  1 35  1  0
  4 36  1  0
  7 37  1  0
  8 38  1  0
 12 39  1  0
 13 40  1  0
 15 41  1  0
 18 42  1  0
 20 43  1  0
 22 44  1  0
 22 45  1  0
 22 46  1  0
 27 47  1  0
 29 48  1  0
 32 49  1  0
 32 50  1  0
 32 51  1  0
M  END
>  <meeko>  (2) 
{"is_sidechain": false}

>  <vina_affinity_kcal_mol>  (2) 
-9.225

>  <pose_rank>  (2) 
2

$$$$

     RDKit          3D

 51 54  0  0  0  0  0  0  0  0999 V2000
  -12.8680    0.1980   -5.9170 C   0  0  0  0  0  0  0  0  0  0  0  0
  -13.4210   -0.4820   -7.0350 O   0  0  0  0  0  0  0  0  0  0  0  0
  -12.5940   -0.7270   -8.1050 C   0  0  0  0  0  0  0  0  0  0  0  0
  -11.2760   -1.1850   -7.9980 C   0  0  0  0  0  0  0  0  0  0  0  0
  -10.4840   -1.4150   -9.1140 C   0  0  0  0  0  0  0  0  0  0  0  0
   -9.2250   -1.8530   -8.9320 N   0  0  0  0  0  0  0  0  0  0  0  0
   -8.4530   -2.0650  -10.0200 C   0  0  0  0  0  0  0  0  0  0  0  0
   -8.8820   -1.8660  -11.3140 C   0  0  0  0  0  0  0  0  0  0  0  0
  -10.1930   -1.4360  -11.4940 C   0  0  0  0  0  0  0  0  0  0  0  0
  -10.6690   -1.1820  -12.7640 O   0  0  0  0  0  0  0  0  0  0  0  0
  -10.2140   -0.0450  -13.3950 C   0  0  0  0  0  0  0  0  0  0  0  0
  -10.6030    1.2440  -13.0320 C   0  0  0  0  0  0  0  0  0  0  0  0
  -10.0730    2.3550  -13.7030 C   0  0  0  0  0  0  0  0  0  0  0  0
   -9.1430    2.1880  -14.7320 C   0  0  0  0  0  0  0  0  0  0  0  0
   -8.5650    3.2680  -15.4420 N   0  0  0  0  0  0  0  0  0  0  0  0
   -9.0540    3.8990  -16.5790 C   0  0  0  0  0  0  0  0  0  0  0  0
  -10.0540    3.5450  -17.1880 O   0  0  0  0  0  0  0  0  0  0  0  0
   -8.2510    4.9770  -16.9080 N   0  0  0  0  0  0  0  0  0  0  0  0
   -8.4180    5.7710  -18.0280 C   0  0  0  0  0  0  0  0  0  0  0  0
   -9.2470    6.9210  -18.0490 C   0  0  0  0  0  0  0  0  0  0  0  0
   -9.1260    7.4150  -19.3240 C   0  0  0  0  0  0  0  0  0  0  0  0
   -9.6950    8.5650  -20.0460 C   0  0  0  0  0  0  0  0  0  0  0  0
   -8.2770    6.6220  -20.0260 O   0  0  0  0  0  0  0  0  0  0  0  0
   -7.8320    5.5970  -19.2150 N   0  0  0  0  0  0  0  0  0  0  0  0
   -8.7380    0.8790  -15.0620 C   0  0  0  0  0  0  0  0  0  0  0  0
   -7.5690    0.5990  -16.3090 Cl  0  0  0  0  0  0  0  0  0  0  0  0
   -9.2660   -0.2300  -14.3980 C   0  0  0  0  0  0  0  0  0  0  0  0
  -11.0280   -1.1800  -10.3880 C   0  0  0  0  0  0  0  0  0  0  0  0
  -12.3580   -0.7160  -10.5070 C   0  0  0  0  0  0  0  0  0  0  0  0
  -13.1420   -0.4880   -9.3760 C   0  0  0  0  0  0  0  0  0  0  0  0
  -14.4380   -0.0400   -9.4040 O   0  0  0  0  0  0  0  0  0  0  0  0
  -14.7260    1.1070  -10.1890 C   0  0  0  0  0  0  0  0  0  0  0  0
  -13.2402   -0.2597   -4.9886 H   0  0  0  0  0  0  0  0  0  0  0  0
  -11.7710    0.1234   -5.9484 H   0  0  0  0  0  0  0  0  0  0  0  0
  -13.1646    1.2568   -5.9484 H   0  0  0  0  0  0  0  0  0  0  0  0
  -10.8548   -1.3683   -6.9985 H   0  0  0  0  0  0  0  0  0  0  0  0
   -7.4225   -2.4168   -9.8638 H   0  0  0  0  0  0  0  0  0  0  0  0
   -8.2146   -2.0401  -12.1709 H   0  0  0  0  0  0  0  0  0  0  0  0
  -11.3275    1.3894  -12.2172 H   0  0  0  0  0  0  0  0  0  0  0  0
  -10.3925    3.3679  -13.4165 H   0  0  0  0  0  0  0  0  0  0  0  0
   -7.6190    3.4940  -15.1660 H   0  0  0  0  0  0  0  0  0  0  0  0
   -7.5670    5.2880  -16.2410 H   0  0  0  0  0  0  0  0  0  0  0  0
   -9.8530    7.3274  -17.2258 H   0  0  0  0  0  0  0  0  0  0  0  0
  -10.0623    9.3073  -19.3220 H   0  0  0  0  0  0  0  0  0  0  0  0
   -8.9189    9.0218  -20.6777 H   0  0  0  0  0  0  0  0  0  0  0  0
  -10.5289    8.2252  -20.6777 H   0  0  0  0  0  0  0  0  0  0  0  0
   -8.9349   -1.2442  -14.6658 H   0  0  0  0  0  0  0  0  0  0  0  0
  -12.7807   -0.5321  -11.5057 H   0  0  0  0  0  0  0  0  0  0  0  0
  -14.9401    1.9596   -9.5277 H   0  0  0  0  0  0  0  0  0  0  0  0
  -13.8595    1.3439  -10.8238 H   0  0  0  0  0  0  0  0  0  0  0  0
  -15.6017    0.9064  -10.8238 H   0  0  0  0  0  0  0  0  0  0  0  0
  1  2  1  0
  2  3  1  0
  3  4  1  0
  4  5  2  0
  5  6  1  0
  6  7  2  0
  7  8  1  0
  8  9  2  0
  9 10  1  0
 10 11  1  0
 11 12  1  0
 12 13  2  0
 13 14  1  0
 14 15  1  0
 15 16  1  0
 16 17  2  0
 16 18  1  0
 18 19  1  0
 19 20  1  0
 20 21  2  0
 21 22  1  0
 21 23  1  0
 23 24  1  0
 14 25  2  0
 25 26  1  0
 25 27  1  0
  9 28  1  0
 28 29  2  0
 29 30  1  0
 30 31  1  0
 31 32  1  0
 30  3  2  0
 28  5  1  0
 27 11  2  0
 24 19  2  0
  1 33  1  0
  1 34  1  0
  1 35  1  0
  4 36  1  0
  7 37  1  0
  8 38  1  0
 12 39  1  0
 13 40  1  0
 15 41  1  0
 18 42  1  0
 20 43  1  0
 22 44  1  0
 22 45  1  0
 22 46  1  0
 27 47  1  0
 29 48  1  0
 32 49  1  0
 32 50  1  0
 32 51  1  0
M  END
>  <meeko>  (3) 
{"is_sidechain": false}

>  <vina_affinity_kcal_mol>  (3) 
-9.174

>  <pose_rank>  (3) 
3

$$$$

     RDKit          3D

 51 54  0  0  0  0  0  0  0  0999 V2000
   -7.9480    5.5470  -18.9680 C   0  0  0  0  0  0  0  0  0  0  0  0
   -7.8460    5.5310  -17.5510 O   0  0  0  0  0  0  0  0  0  0  0  0
   -7.9890    4.3220  -16.9150 C   0  0  0  0  0  0  0  0  0  0  0  0
   -6.9240    3.5480  -16.4390 C   0  0  0  0  0  0  0  0  0  0  0  0
   -7.1260    2.3310  -15.8030 C   0  0  0  0  0  0  0  0  0  0  0  0
   -6.0530    1.6420  -15.3750 N   0  0  0  0  0  0  0  0  0  0  0  0
   -6.2520    0.4520  -14.7660 C   0  0  0  0  0  0  0  0  0  0  0  0
   -7.4960   -0.0980  -14.5500 C   0  0  0  0  0  0  0  0  0  0  0  0
   -8.6020    0.6330  -14.9740 C   0  0  0  0  0  0  0  0  0  0  0  0
   -9.8720    0.1170  -14.8190 O   0  0  0  0  0  0  0  0  0  0  0  0
  -10.4840    0.2970  -13.5970 C   0  0  0  0  0  0  0  0  0  0  0  0
  -11.2340    1.4270  -13.2700 C   0  0  0  0  0  0  0  0  0  0  0  0
  -11.8520    1.5230  -12.0170 C   0  0  0  0  0  0  0  0  0  0  0  0
  -11.7360    0.4900  -11.0840 C   0  0  0  0  0  0  0  0  0  0  0  0
  -12.3410    0.5240   -9.8040 N   0  0  0  0  0  0  0  0  0  0  0  0
  -13.6720    0.2880   -9.4840 C   0  0  0  0  0  0  0  0  0  0  0  0
  -14.5520    0.0810  -10.3080 O   0  0  0  0  0  0  0  0  0  0  0  0
  -13.8450    0.3160   -8.1110 N   0  0  0  0  0  0  0  0  0  0  0  0
  -15.0620    0.1920   -7.4680 C   0  0  0  0  0  0  0  0  0  0  0  0
  -15.3320   -0.8110   -6.5030 C   0  0  0  0  0  0  0  0  0  0  0  0
  -16.6270   -0.5790   -6.1110 C   0  0  0  0  0  0  0  0  0  0  0  0
  -17.5510   -1.2190   -5.1590 C   0  0  0  0  0  0  0  0  0  0  0  0
  -17.1070    0.4940   -6.7890 O   0  0  0  0  0  0  0  0  0  0  0  0
  -16.1290    0.9780   -7.6340 N   0  0  0  0  0  0  0  0  0  0  0  0
  -11.0010   -0.6560  -11.4440 C   0  0  0  0  0  0  0  0  0  0  0  0
  -10.8370   -1.9880  -10.3470 Cl  0  0  0  0  0  0  0  0  0  0  0  0
  -10.3810   -0.7560  -12.6910 C   0  0  0  0  0  0  0  0  0  0  0  0
   -8.4420    1.8680  -15.6330 C   0  0  0  0  0  0  0  0  0  0  0  0
   -9.5240    2.6410  -16.1110 C   0  0  0  0  0  0  0  0  0  0  0  0
   -9.3060    3.8630  -16.7500 C   0  0  0  0  0  0  0  0  0  0  0  0
  -10.2980    4.6730  -17.2410 O   0  0  0  0  0  0  0  0  0  0  0  0
  -10.9630    5.5330  -16.3280 C   0  0  0  0  0  0  0  0  0  0  0  0
   -8.9962    5.7114  -19.2583 H   0  0  0  0  0  0  0  0  0  0  0  0
   -7.3242    6.3583  -19.3714 H   0  0  0  0  0  0  0  0  0  0  0  0
   -7.6026    4.5837  -19.3714 H   0  0  0  0  0  0  0  0  0  0  0  0
   -5.8959    3.9155  -16.5731 H   0  0  0  0  0  0  0  0  0  0  0  0
   -5.3702   -0.1092  -14.4233 H   0  0  0  0  0  0  0  0  0  0  0  0
   -7.6111   -1.0768  -14.0615 H   0  0  0  0  0  0  0  0  0  0  0  0
  -11.3402    2.2446  -13.9982 H   0  0  0  0  0  0  0  0  0  0  0  0
  -12.4348    2.4212  -11.7649 H   0  0  0  0  0  0  0  0  0  0  0  0
  -11.7590    0.9120   -9.0740 H   0  0  0  0  0  0  0  0  0  0  0  0
  -13.0290    0.3110   -7.5250 H   0  0  0  0  0  0  0  0  0  0  0  0
  -14.6538   -1.6005   -6.1471 H   0  0  0  0  0  0  0  0  0  0  0  0
  -17.2300   -0.9967   -4.1306 H   0  0  0  0  0  0  0  0  0  0  0  0
  -18.5679   -0.8308   -5.3177 H   0  0  0  0  0  0  0  0  0  0  0  0
  -17.5451   -2.3075   -5.3177 H   0  0  0  0  0  0  0  0  0  0  0  0
   -9.8146   -1.6609  -12.9564 H   0  0  0  0  0  0  0  0  0  0  0  0
  -10.5526    2.2747  -15.9777 H   0  0  0  0  0  0  0  0  0  0  0  0
  -10.7268    5.2275  -15.2980 H   0  0  0  0  0  0  0  0  0  0  0  0
  -10.6282    6.5683  -16.4893 H   0  0  0  0  0  0  0  0  0  0  0  0
  -12.0493    5.4695  -16.4893 H   0  0  0  0  0  0  0  0  0  0  0  0
  1  2  1  0
  2  3  1  0
  3  4  1  0
  4  5  2  0
  5  6  1  0
  6  7  2  0
  7  8  1  0
  8  9  2  0
  9 10  1  0
 10 11  1  0
 11 12  1  0
 12 13  2  0
 13 14  1  0
 14 15  1  0
 15 16  1  0
 16 17  2  0
 16 18  1  0
 18 19  1  0
 19 20  1  0
 20 21  2  0
 21 22  1  0
 21 23  1  0
 23 24  1  0
 14 25  2  0
 25 26  1  0
 25 27  1  0
  9 28  1  0
 28 29  2  0
 29 30  1  0
 30 31  1  0
 31 32  1  0
 30  3  2  0
 28  5  1  0
 27 11  2  0
 24 19  2  0
  1 33  1  0
  1 34  1  0
  1 35  1  0
  4 36  1  0
  7 37  1  0
  8 38  1  0
 12 39  1  0
 13 40  1  0
 15 41  1  0
 18 42  1  0
 20 43  1  0
 22 44  1  0
 22 45  1  0
 22 46  1  0
 27 47  1  0
 29 48  1  0
 32 49  1  0
 32 50  1  0
 32 51  1  0
M  END
>  <meeko>  (4) 
{"is_sidechain": false}

>  <vina_affinity_kcal_mol>  (4) 
-9.02

>  <pose_rank>  (4) 
4

$$$$

     RDKit          3D

 51 54  0  0  0  0  0  0  0  0999 V2000
  -10.6400   -0.7700   -3.9580 C   0  0  0  0  0  0  0  0  0  0  0  0
  -10.4550    0.3250   -4.8440 O   0  0  0  0  0  0  0  0  0  0  0  0
  -11.1790    0.3290   -6.0130 C   0  0  0  0  0  0  0  0  0  0  0  0
  -12.5510    0.5910   -6.0920 C   0  0  0  0  0  0  0  0  0  0  0  0
  -13.2330    0.5810   -7.3010 C   0  0  0  0  0  0  0  0  0  0  0  0
  -14.5530    0.8390   -7.2990 N   0  0  0  0  0  0  0  0  0  0  0  0
  -15.2170    0.8170   -8.4760 C   0  0  0  0  0  0  0  0  0  0  0  0
  -14.6170    0.5520   -9.6870 C   0  0  0  0  0  0  0  0  0  0  0  0
  -13.2470    0.3100   -9.6840 C   0  0  0  0  0  0  0  0  0  0  0  0
  -12.5960    0.0010  -10.8600 O   0  0  0  0  0  0  0  0  0  0  0  0
  -12.2130    1.0510  -11.6660 C   0  0  0  0  0  0  0  0  0  0  0  0
  -10.9070    1.2360  -12.1210 C   0  0  0  0  0  0  0  0  0  0  0  0
  -10.6010    2.3130  -12.9640 C   0  0  0  0  0  0  0  0  0  0  0  0
  -11.5960    3.2060  -13.3690 C   0  0  0  0  0  0  0  0  0  0  0  0
  -11.3520    4.3080  -14.2240 N   0  0  0  0  0  0  0  0  0  0  0  0
  -10.7190    4.3040  -15.4600 C   0  0  0  0  0  0  0  0  0  0  0  0
  -10.2010    3.3180  -15.9660 O   0  0  0  0  0  0  0  0  0  0  0  0
  -10.7700    5.5660  -16.0260 N   0  0  0  0  0  0  0  0  0  0  0  0
  -10.1690    5.9190  -17.2200 C   0  0  0  0  0  0  0  0  0  0  0  0
  -10.8950    6.1810  -18.4090 C   0  0  0  0  0  0  0  0  0  0  0  0
   -9.9380    6.4990  -19.3400 C   0  0  0  0  0  0  0  0  0  0  0  0
   -9.9650    6.8730  -20.7640 C   0  0  0  0  0  0  0  0  0  0  0  0
   -8.7160    6.4390  -18.7540 O   0  0  0  0  0  0  0  0  0  0  0  0
   -8.8600    6.0800  -17.4290 N   0  0  0  0  0  0  0  0  0  0  0  0
  -12.9140    2.9840  -12.9250 C   0  0  0  0  0  0  0  0  0  0  0  0
  -14.2040    4.0360  -13.4080 Cl  0  0  0  0  0  0  0  0  0  0  0  0
  -13.2240    1.9140  -12.0830 C   0  0  0  0  0  0  0  0  0  0  0  0
  -12.5180    0.3000   -8.4780 C   0  0  0  0  0  0  0  0  0  0  0  0
  -11.1320    0.0330   -8.4080 C   0  0  0  0  0  0  0  0  0  0  0  0
  -10.4590    0.0460   -7.1850 C   0  0  0  0  0  0  0  0  0  0  0  0
   -9.1190   -0.2000   -7.0310 O   0  0  0  0  0  0  0  0  0  0  0  0
   -8.5520   -1.2700   -7.7720 C   0  0  0  0  0  0  0  0  0  0  0  0
  -10.5800   -0.4149   -2.9186 H   0  0  0  0  0  0  0  0  0  0  0  0
  -11.6272   -1.2219   -4.1347 H   0  0  0  0  0  0  0  0  0  0  0  0
   -9.8560   -1.5211   -4.1347 H   0  0  0  0  0  0  0  0  0  0  0  0
  -13.1060    0.8116   -5.1683 H   0  0  0  0  0  0  0  0  0  0  0  0
  -16.2976    1.0223   -8.4661 H   0  0  0  0  0  0  0  0  0  0  0  0
  -15.1985    0.5324  -10.6205 H   0  0  0  0  0  0  0  0  0  0  0  0
  -10.1157    0.5349  -11.8173 H   0  0  0  0  0  0  0  0  0  0  0  0
   -9.5668    2.4566  -13.3103 H   0  0  0  0  0  0  0  0  0  0  0  0
  -11.5310    5.2110  -13.8060 H   0  0  0  0  0  0  0  0  0  0  0  0
  -11.3760    6.2530  -15.6130 H   0  0  0  0  0  0  0  0  0  0  0  0
  -11.9846    6.1388  -18.5536 H   0  0  0  0  0  0  0  0  0  0  0  0
  -10.0439    7.9664  -20.8545 H   0  0  0  0  0  0  0  0  0  0  0  0
   -9.0398    6.5306  -21.2506 H   0  0  0  0  0  0  0  0  0  0  0  0
  -10.8314    6.4013  -21.2506 H   0  0  0  0  0  0  0  0  0  0  0  0
  -14.2603    1.7535  -11.7510 H   0  0  0  0  0  0  0  0  0  0  0  0
  -10.5754   -0.1883   -9.3306 H   0  0  0  0  0  0  0  0  0  0  0  0
   -8.1521   -2.0247   -7.0788 H   0  0  0  0  0  0  0  0  0  0  0  0
   -9.3259   -1.7277   -8.4057 H   0  0  0  0  0  0  0  0  0  0  0  0
   -7.7387   -0.8867   -8.4057 H   0  0  0  0  0  0  0  0  0  0  0  0
  1  2  1  0
  2  3  1  0
  3  4  1  0
  4  5  2  0
  5  6  1  0
  6  7  2  0
  7  8  1  0
  8  9  2  0
  9 10  1  0
 10 11  1  0
 11 12  1  0
 12 13  2  0
 13 14  1  0
 14 15  1  0
 15 16  1  0
 16 17  2  0
 16 18  1  0
 18 19  1  0
 19 20  1  0
 20 21  2  0
 21 22  1  0
 21 23  1  0
 23 24  1  0
 14 25  2  0
 25 26  1  0
 25 27  1  0
  9 28  1  0
 28 29  2  0
 29 30  1  0
 30 31  1  0
 31 32  1  0
 30  3  2  0
 28  5  1  0
 27 11  2  0
 24 19  2  0
  1 33  1  0
  1 34  1  0
  1 35  1  0
  4 36  1  0
  7 37  1  0
  8 38  1  0
 12 39  1  0
 13 40  1  0
 15 41  1  0
 18 42  1  0
 20 43  1  0
 22 44  1  0
 22 45  1  0
 22 46  1  0
 27 47  1  0
 29 48  1  0
 32 49  1  0
 32 50  1  0
 32 51  1  0
M  END
>  <meeko>  (5) 
{"is_sidechain": false}

>  <vina_affinity_kcal_mol>  (5) 
-8.906

>  <pose_rank>  (5) 
5

$$$$

     RDKit          3D

 51 54  0  0  0  0  0  0  0  0999 V2000
   -6.6890    4.3960  -17.6900 C   0  0  0  0  0  0  0  0  0  0  0  0
   -8.0990    4.2980  -17.8330 O   0  0  0  0  0  0  0  0  0  0  0  0
   -8.7970    3.6540  -16.8390 C   0  0  0  0  0  0  0  0  0  0  0  0
   -8.6100    2.3140  -16.4810 C   0  0  0  0  0  0  0  0  0  0  0  0
   -9.3450    1.7140  -15.4680 C   0  0  0  0  0  0  0  0  0  0  0  0
   -9.1110    0.4210  -15.1820 N   0  0  0  0  0  0  0  0  0  0  0  0
   -9.8360   -0.1640  -14.2030 C   0  0  0  0  0  0  0  0  0  0  0  0
  -10.8010    0.4910  -13.4700 C   0  0  0  0  0  0  0  0  0  0  0  0
  -11.0190    1.8350  -13.7560 C   0  0  0  0  0  0  0  0  0  0  0  0
  -11.9980    2.5360  -13.0820 O   0  0  0  0  0  0  0  0  0  0  0  0
  -12.6020    1.9100  -12.0130 C   0  0  0  0  0  0  0  0  0  0  0  0
  -13.9620    2.0210  -11.7240 C   0  0  0  0  0  0  0  0  0  0  0  0
  -14.5100    1.3290  -10.6360 C   0  0  0  0  0  0  0  0  0  0  0  0
  -13.7080    0.5120   -9.8350 C   0  0  0  0  0  0  0  0  0  0  0  0
  -14.2020   -0.2180   -8.7260 N   0  0  0  0  0  0  0  0  0  0  0  0
  -14.6910   -1.5180   -8.7120 C   0  0  0  0  0  0  0  0  0  0  0  0
  -14.8360   -2.2110   -9.7090 O   0  0  0  0  0  0  0  0  0  0  0  0
  -14.9810   -1.9040   -7.4150 N   0  0  0  0  0  0  0  0  0  0  0  0
  -15.5530   -3.1110   -7.0610 C   0  0  0  0  0  0  0  0  0  0  0  0
  -14.8210   -4.3220   -6.9690 C   0  0  0  0  0  0  0  0  0  0  0  0
  -15.7460   -5.2620   -6.5870 C   0  0  0  0  0  0  0  0  0  0  0  0
  -15.6980   -6.7070   -6.3080 C   0  0  0  0  0  0  0  0  0  0  0  0
  -16.9560   -4.6600   -6.4520 O   0  0  0  0  0  0  0  0  0  0  0  0
  -16.8350   -3.3170   -6.7450 N   0  0  0  0  0  0  0  0  0  0  0  0
  -12.3430    0.3870  -10.1620 C   0  0  0  0  0  0  0  0  0  0  0  0
  -11.2950   -0.6290   -9.2280 Cl  0  0  0  0  0  0  0  0  0  0  0  0
  -11.7930    1.0770  -11.2440 C   0  0  0  0  0  0  0  0  0  0  0  0
  -10.3030    2.4810  -14.7830 C   0  0  0  0  0  0  0  0  0  0  0  0
  -10.5010    3.8350  -15.1380 C   0  0  0  0  0  0  0  0  0  0  0  0
   -9.7550    4.4250  -16.1600 C   0  0  0  0  0  0  0  0  0  0  0  0
   -9.8840    5.7290  -16.5640 O   0  0  0  0  0  0  0  0  0  0  0  0
  -11.0720    6.0970  -17.2480 C   0  0  0  0  0  0  0  0  0  0  0  0
   -6.4292    4.4141  -16.6213 H   0  0  0  0  0  0  0  0  0  0  0  0
   -6.2107    3.5289  -18.1690 H   0  0  0  0  0  0  0  0  0  0  0  0
   -6.3353    5.3209  -18.1690 H   0  0  0  0  0  0  0  0  0  0  0  0
   -7.8577    1.7183  -17.0188 H   0  0  0  0  0  0  0  0  0  0  0  0
   -9.6446   -1.2237  -13.9786 H   0  0  0  0  0  0  0  0  0  0  0  0
  -11.3765   -0.0281  -12.6894 H   0  0  0  0  0  0  0  0  0  0  0  0
  -14.6062    2.6537  -12.3522 H   0  0  0  0  0  0  0  0  0  0  0  0
  -15.5818    1.4298  -10.4102 H   0  0  0  0  0  0  0  0  0  0  0  0
  -14.3470    0.3330   -7.8910 H   0  0  0  0  0  0  0  0  0  0  0  0
  -14.6540   -1.3280   -6.6580 H   0  0  0  0  0  0  0  0  0  0  0  0
  -13.7487   -4.4746   -7.1612 H   0  0  0  0  0  0  0  0  0  0  0  0
  -15.6926   -6.8704   -5.2202 H   0  0  0  0  0  0  0  0  0  0  0  0
  -16.5804   -7.1948   -6.7477 H   0  0  0  0  0  0  0  0  0  0  0  0
  -14.7851   -7.1352   -6.7477 H   0  0  0  0  0  0  0  0  0  0  0  0
  -10.7264    0.9633  -11.4878 H   0  0  0  0  0  0  0  0  0  0  0  0
  -11.2533    4.4319  -14.6016 H   0  0  0  0  0  0  0  0  0  0  0  0
  -11.8563    6.3399  -16.5160 H   0  0  0  0  0  0  0  0  0  0  0  0
  -10.8744    6.9761  -17.8791 H   0  0  0  0  0  0  0  0  0  0  0  0
  -11.4060    5.2602  -17.8791 H   0  0  0  0  0  0  0  0  0  0  0  0
  1  2  1  0
  2  3  1  0
  3  4  1  0
  4  5  2  0
  5  6  1  0
  6  7  2  0
  7  8  1  0
  8  9  2  0
  9 10  1  0
 10 11  1  0
 11 12  1  0
 12 13  2  0
 13 14  1  0
 14 15  1  0
 15 16  1  0
 16 17  2  0
 16 18  1  0
 18 19  1  0
 19 20  1  0
 20 21  2  0
 21 22  1  0
 21 23  1  0
 23 24  1  0
 14 25  2  0
 25 26  1  0
 25 27  1  0
  9 28  1  0
 28 29  2  0
 29 30  1  0
 30 31  1  0
 31 32  1  0
 30  3  2  0
 28  5  1  0
 27 11  2  0
 24 19  2  0
  1 33  1  0
  1 34  1  0
  1 35  1  0
  4 36  1  0
  7 37  1  0
  8 38  1  0
 12 39  1  0
 13 40  1  0
 15 41  1  0
 18 42  1  0
 20 43  1  0
 22 44  1  0
 22 45  1  0
 22 46  1  0
 27 47  1  0
 29 48  1  0
 32 49  1  0
 32 50  1  0
 32 51  1  0
M  END
>  <meeko>  (6) 
{"is_sidechain": false}

>  <vina_affinity_kcal_mol>  (6) 
-8.885

>  <pose_rank>  (6) 
6

$$$$

     RDKit          3D

 51 54  0  0  0  0  0  0  0  0999 V2000
   -7.2800   -1.1700   -7.0560 C   0  0  0  0  0  0  0  0  0  0  0  0
   -7.5370   -2.1730   -8.0280 O   0  0  0  0  0  0  0  0  0  0  0  0
   -7.2690   -1.8720   -9.3420 C   0  0  0  0  0  0  0  0  0  0  0  0
   -6.0360   -1.4030   -9.8110 C   0  0  0  0  0  0  0  0  0  0  0  0
   -5.8210   -1.1130  -11.1510 C   0  0  0  0  0  0  0  0  0  0  0  0
   -4.6100   -0.6640  -11.5260 N   0  0  0  0  0  0  0  0  0  0  0  0
   -4.4070   -0.3710  -12.8290 C   0  0  0  0  0  0  0  0  0  0  0  0
   -5.3690   -0.5130  -13.8050 C   0  0  0  0  0  0  0  0  0  0  0  0
   -6.6110   -1.0020  -13.4120 C   0  0  0  0  0  0  0  0  0  0  0  0
   -7.6270   -1.1310  -14.3360 O   0  0  0  0  0  0  0  0  0  0  0  0
   -8.1140    0.0250  -14.9070 C   0  0  0  0  0  0  0  0  0  0  0  0
   -7.9650    0.3380  -16.2580 C   0  0  0  0  0  0  0  0  0  0  0  0
   -8.5160    1.5190  -16.7720 C   0  0  0  0  0  0  0  0  0  0  0  0
   -9.2270    2.3920  -15.9450 C   0  0  0  0  0  0  0  0  0  0  0  0
   -9.8130    3.5970  -16.4050 N   0  0  0  0  0  0  0  0  0  0  0  0
   -9.3380    4.4540  -17.3880 C   0  0  0  0  0  0  0  0  0  0  0  0
   -8.2680    4.3170  -17.9640 O   0  0  0  0  0  0  0  0  0  0  0  0
  -10.2510    5.4690  -17.6170 N   0  0  0  0  0  0  0  0  0  0  0  0
  -10.0490    6.5290  -18.4820 C   0  0  0  0  0  0  0  0  0  0  0  0
   -9.4110    7.7360  -18.0980 C   0  0  0  0  0  0  0  0  0  0  0  0
   -9.4060    8.5050  -19.2350 C   0  0  0  0  0  0  0  0  0  0  0  0
   -8.9170    9.8530  -19.5690 C   0  0  0  0  0  0  0  0  0  0  0  0
   -9.9960    7.8100  -20.2400 O   0  0  0  0  0  0  0  0  0  0  0  0
  -10.3950    6.5750  -19.7710 N   0  0  0  0  0  0  0  0  0  0  0  0
   -9.3940    2.0430  -14.5900 C   0  0  0  0  0  0  0  0  0  0  0  0
  -10.2870    3.0650  -13.5130 Cl  0  0  0  0  0  0  0  0  0  0  0  0
   -8.8450    0.8680  -14.0740 C   0  0  0  0  0  0  0  0  0  0  0  0
   -6.8760   -1.2990  -12.0600 C   0  0  0  0  0  0  0  0  0  0  0  0
   -8.1250   -1.7700  -11.5970 C   0  0  0  0  0  0  0  0  0  0  0  0
   -8.3280   -2.0570  -10.2460 C   0  0  0  0  0  0  0  0  0  0  0  0
   -9.5060   -2.5190   -9.7160 O   0  0  0  0  0  0  0  0  0  0  0  0
  -10.6920   -2.3250  -10.4700 C   0  0  0  0  0  0  0  0  0  0  0  0
   -7.3898   -1.5986   -6.0489 H   0  0  0  0  0  0  0  0  0  0  0  0
   -6.2555   -0.7902   -7.1831 H   0  0  0  0  0  0  0  0  0  0  0  0
   -7.9956   -0.3443   -7.1831 H   0  0  0  0  0  0  0  0  0  0  0  0
   -5.2127   -1.2600   -9.0956 H   0  0  0  0  0  0  0  0  0  0  0  0
   -3.4165    0.0025  -13.1280 H   0  0  0  0  0  0  0  0  0  0  0  0
   -5.1634   -0.2503  -14.8532 H   0  0  0  0  0  0  0  0  0  0  0  0
   -7.4134   -0.3442  -16.9216 H   0  0  0  0  0  0  0  0  0  0  0  0
   -8.3875    1.7613  -17.8373 H   0  0  0  0  0  0  0  0  0  0  0  0
  -10.5820    3.9320  -15.8390 H   0  0  0  0  0  0  0  0  0  0  0  0
  -11.1710    5.3840  -17.2240 H   0  0  0  0  0  0  0  0  0  0  0  0
   -9.0091    7.9979  -17.1081 H   0  0  0  0  0  0  0  0  0  0  0  0
   -8.7150   10.4099  -18.6421 H   0  0  0  0  0  0  0  0  0  0  0  0
   -7.9910    9.7718  -20.1572 H   0  0  0  0  0  0  0  0  0  0  0  0
   -9.6796   10.3844  -20.1572 H   0  0  0  0  0  0  0  0  0  0  0  0
   -8.9891    0.6093  -13.0146 H   0  0  0  0  0  0  0  0  0  0  0  0
   -8.9493   -1.9126  -12.3113 H   0  0  0  0  0  0  0  0  0  0  0  0
  -11.5425   -2.1859   -9.7864 H   0  0  0  0  0  0  0  0  0  0  0  0
  -10.5816   -1.4330  -11.1041 H   0  0  0  0  0  0  0  0  0  0  0  0
  -10.8715   -3.2057  -11.1041 H   0  0  0  0  0  0  0  0  0  0  0  0
  1  2  1  0
  2  3  1  0
  3  4  1  0
  4  5  2  0
  5  6  1  0
  6  7  2  0
  7  8  1  0
  8  9  2  0
  9 10  1  0
 10 11  1  0
 11 12  1  0
 12 13  2  0
 13 14  1  0
 14 15  1  0
 15 16  1  0
 16 17  2  0
 16 18  1  0
 18 19  1  0
 19 20  1  0
 20 21  2  0
 21 22  1  0
 21 23  1  0
 23 24  1  0
 14 25  2  0
 25 26  1  0
 25 27  1  0
  9 28  1  0
 28 29  2  0
 29 30  1  0
 30 31  1  0
 31 32  1  0
 30  3  2  0
 28  5  1  0
 27 11  2  0
 24 19  2  0
  1 33  1  0
  1 34  1  0
  1 35  1  0
  4 36  1  0
  7 37  1  0
  8 38  1  0
 12 39  1  0
 13 40  1  0
 15 41  1  0
 18 42  1  0
 20 43  1  0
 22 44  1  0
 22 45  1  0
 22 46  1  0
 27 47  1  0
 29 48  1  0
 32 49  1  0
 32 50  1  0
 32 51  1  0
M  END
>  <meeko>  (7) 
{"is_sidechain": false}

>  <vina_affinity_kcal_mol>  (7) 
-8.814

>  <pose_rank>  (7) 
7

$$$$

     RDKit          3D

 51 54  0  0  0  0  0  0  0  0999 V2000
  -17.7050   -3.1230   -5.7090 C   0  0  0  0  0  0  0  0  0  0  0  0
  -17.8650   -2.2230   -6.7970 O   0  0  0  0  0  0  0  0  0  0  0  0
  -16.7470   -1.9050   -7.5310 C   0  0  0  0  0  0  0  0  0  0  0  0
  -15.9820   -2.8310   -8.2480 C   0  0  0  0  0  0  0  0  0  0  0  0
  -14.8610   -2.4540   -8.9740 C   0  0  0  0  0  0  0  0  0  0  0  0
  -14.1730   -3.4020   -9.6360 N   0  0  0  0  0  0  0  0  0  0  0  0
  -13.0750   -3.0330  -10.3320 C   0  0  0  0  0  0  0  0  0  0  0  0
  -12.6180   -1.7360  -10.4100 C   0  0  0  0  0  0  0  0  0  0  0  0
  -13.3490   -0.7590   -9.7420 C   0  0  0  0  0  0  0  0  0  0  0  0
  -12.9200    0.5530   -9.7520 O   0  0  0  0  0  0  0  0  0  0  0  0
  -12.5560    1.0910  -10.9670 C   0  0  0  0  0  0  0  0  0  0  0  0
  -13.3690    1.9540  -11.7010 C   0  0  0  0  0  0  0  0  0  0  0  0
  -12.9150    2.4860  -12.9160 C   0  0  0  0  0  0  0  0  0  0  0  0
  -11.6440    2.1680  -13.4020 C   0  0  0  0  0  0  0  0  0  0  0  0
  -11.1260    2.6770  -14.6170 N   0  0  0  0  0  0  0  0  0  0  0  0
  -11.0150    4.0060  -15.0070 C   0  0  0  0  0  0  0  0  0  0  0  0
  -11.4350    4.9520  -14.3560 O   0  0  0  0  0  0  0  0  0  0  0  0
  -10.3620    4.0930  -16.2240 N   0  0  0  0  0  0  0  0  0  0  0  0
  -10.1560    5.2660  -16.9250 C   0  0  0  0  0  0  0  0  0  0  0  0
  -10.5780    5.4560  -18.2650 C   0  0  0  0  0  0  0  0  0  0  0  0
  -10.1950    6.7380  -18.5740 C   0  0  0  0  0  0  0  0  0  0  0  0
  -10.3040    7.5900  -19.7700 C   0  0  0  0  0  0  0  0  0  0  0  0
   -9.5870    7.2890  -17.4930 O   0  0  0  0  0  0  0  0  0  0  0  0
   -9.5650    6.3710  -16.4620 N   0  0  0  0  0  0  0  0  0  0  0  0
  -10.8260    1.3200  -12.6300 C   0  0  0  0  0  0  0  0  0  0  0  0
   -9.2280    0.9050  -13.1580 Cl  0  0  0  0  0  0  0  0  0  0  0  0
  -11.2750    0.7860  -11.4200 C   0  0  0  0  0  0  0  0  0  0  0  0
  -14.4880   -1.0990   -8.9850 C   0  0  0  0  0  0  0  0  0  0  0  0
  -15.2530   -0.1560   -8.2620 C   0  0  0  0  0  0  0  0  0  0  0  0
  -16.3780   -0.5500   -7.5370 C   0  0  0  0  0  0  0  0  0  0  0  0
  -17.1740    0.3000   -6.8120 O   0  0  0  0  0  0  0  0  0  0  0  0
  -18.1900    1.0090   -7.5060 C   0  0  0  0  0  0  0  0  0  0  0  0
  -17.8027   -2.5734   -4.7611 H   0  0  0  0  0  0  0  0  0  0  0  0
  -18.4785   -3.9033   -5.7618 H   0  0  0  0  0  0  0  0  0  0  0  0
  -16.7099   -3.5889   -5.7618 H   0  0  0  0  0  0  0  0  0  0  0  0
  -16.2780   -3.8903   -8.2360 H   0  0  0  0  0  0  0  0  0  0  0  0
  -12.5139   -3.8133  -10.8670 H   0  0  0  0  0  0  0  0  0  0  0  0
  -11.7108   -1.4827  -10.9781 H   0  0  0  0  0  0  0  0  0  0  0  0
  -14.3688    2.2179  -11.3258 H   0  0  0  0  0  0  0  0  0  0  0  0
  -13.5655    3.1603  -13.4923 H   0  0  0  0  0  0  0  0  0  0  0  0
  -10.9610    1.9780  -15.3290 H   0  0  0  0  0  0  0  0  0  0  0  0
   -9.9000    3.2750  -16.5800 H   0  0  0  0  0  0  0  0  0  0  0  0
  -11.0975    4.7356  -18.9139 H   0  0  0  0  0  0  0  0  0  0  0  0
  -10.4380    8.6377  -19.4628 H   0  0  0  0  0  0  0  0  0  0  0  0
   -9.3868    7.4984  -20.3703 H   0  0  0  0  0  0  0  0  0  0  0  0
  -11.1686    7.2704  -20.3703 H   0  0  0  0  0  0  0  0  0  0  0  0
  -10.6208    0.1286  -10.8286 H   0  0  0  0  0  0  0  0  0  0  0  0
  -14.9573    0.9035   -8.2710 H   0  0  0  0  0  0  0  0  0  0  0  0
  -18.8680    1.4821   -6.7804 H   0  0  0  0  0  0  0  0  0  0  0  0
  -17.7305    1.7836   -8.1376 H   0  0  0  0  0  0  0  0  0  0  0  0
  -18.7585    0.3105   -8.1376 H   0  0  0  0  0  0  0  0  0  0  0  0
  1  2  1  0
  2  3  1  0
  3  4  1  0
  4  5  2  0
  5  6  1  0
  6  7  2  0
  7  8  1  0
  8  9  2  0
  9 10  1  0
 10 11  1  0
 11 12  1  0
 12 13  2  0
 13 14  1  0
 14 15  1  0
 15 16  1  0
 16 17  2  0
 16 18  1  0
 18 19  1  0
 19 20  1  0
 20 21  2  0
 21 22  1  0
 21 23  1  0
 23 24  1  0
 14 25  2  0
 25 26  1  0
 25 27  1  0
  9 28  1  0
 28 29  2  0
 29 30  1  0
 30 31  1  0
 31 32  1  0
 30  3  2  0
 28  5  1  0
 27 11  2  0
 24 19  2  0
  1 33  1  0
  1 34  1  0
  1 35  1  0
  4 36  1  0
  7 37  1  0
  8 38  1  0
 12 39  1  0
 13 40  1  0
 15 41  1  0
 18 42  1  0
 20 43  1  0
 22 44  1  0
 22 45  1  0
 22 46  1  0
 27 47  1  0
 29 48  1  0
 32 49  1  0
 32 50  1  0
 32 51  1  0
M  END
>  <meeko>  (8) 
{"is_sidechain": false}

>  <vina_affinity_kcal_mol>  (8) 
-8.744

>  <pose_rank>  (8) 
8

$$$$

     RDKit          3D

 51 54  0  0  0  0  0  0  0  0999 V2000
  -13.5180    4.3340  -14.2470 C   0  0  0  0  0  0  0  0  0  0  0  0
  -12.1250    4.2690  -13.9760 O   0  0  0  0  0  0  0  0  0  0  0  0
  -11.2620    4.4400  -15.0320 C   0  0  0  0  0  0  0  0  0  0  0  0
  -11.1220    5.6300  -15.7550 C   0  0  0  0  0  0  0  0  0  0  0  0
  -10.2340    5.7470  -16.8150 C   0  0  0  0  0  0  0  0  0  0  0  0
  -10.1570    6.9220  -17.4650 N   0  0  0  0  0  0  0  0  0  0  0  0
   -9.3000    7.0290  -18.5030 C   0  0  0  0  0  0  0  0  0  0  0  0
   -8.4880    6.0030  -18.9350 C   0  0  0  0  0  0  0  0  0  0  0  0
   -8.5560    4.7990  -18.2410 C   0  0  0  0  0  0  0  0  0  0  0  0
   -7.7960    3.7220  -18.6490 O   0  0  0  0  0  0  0  0  0  0  0  0
   -6.9790    3.1310  -17.7100 C   0  0  0  0  0  0  0  0  0  0  0  0
   -6.2630    3.8490  -16.7520 C   0  0  0  0  0  0  0  0  0  0  0  0
   -5.4770    3.1740  -15.8090 C   0  0  0  0  0  0  0  0  0  0  0  0
   -5.4080    1.7790  -15.8060 C   0  0  0  0  0  0  0  0  0  0  0  0
   -4.6390    1.0380  -14.8760 N   0  0  0  0  0  0  0  0  0  0  0  0
   -5.0530    0.4980  -13.6660 C   0  0  0  0  0  0  0  0  0  0  0  0
   -6.1660    0.6560  -13.1850 O   0  0  0  0  0  0  0  0  0  0  0  0
   -4.0300   -0.2420  -13.0990 N   0  0  0  0  0  0  0  0  0  0  0  0
   -4.0910   -0.8500  -11.8590 C   0  0  0  0  0  0  0  0  0  0  0  0
   -4.7180   -2.1020  -11.6360 C   0  0  0  0  0  0  0  0  0  0  0  0
   -4.5490   -2.3440  -10.2960 C   0  0  0  0  0  0  0  0  0  0  0  0
   -4.9370   -3.4340   -9.3850 C   0  0  0  0  0  0  0  0  0  0  0  0
   -3.8620   -1.3120   -9.7440 O   0  0  0  0  0  0  0  0  0  0  0  0
   -3.5730   -0.3800  -10.7210 N   0  0  0  0  0  0  0  0  0  0  0  0
   -6.1640    1.0710  -16.7610 C   0  0  0  0  0  0  0  0  0  0  0  0
   -6.1480   -0.6620  -16.8000 Cl  0  0  0  0  0  0  0  0  0  0  0  0
   -6.9470    1.7390  -17.7040 C   0  0  0  0  0  0  0  0  0  0  0  0
   -9.4510    4.6330  -17.1660 C   0  0  0  0  0  0  0  0  0  0  0  0
   -9.5860    3.4260  -16.4440 C   0  0  0  0  0  0  0  0  0  0  0  0
  -10.4850    3.3230  -15.3800 C   0  0  0  0  0  0  0  0  0  0  0  0
  -10.6740    2.1920  -14.6280 O   0  0  0  0  0  0  0  0  0  0  0  0
   -9.5320    1.5910  -14.0360 C   0  0  0  0  0  0  0  0  0  0  0  0
  -14.0752    4.3600  -13.2989 H   0  0  0  0  0  0  0  0  0  0  0  0
  -13.7369    5.2433  -14.8260 H   0  0  0  0  0  0  0  0  0  0  0  0
  -13.8206    3.4490  -14.8260 H   0  0  0  0  0  0  0  0  0  0  0  0
  -11.7347    6.4994  -15.4744 H   0  0  0  0  0  0  0  0  0  0  0  0
   -9.2470    7.9907  -19.0344 H   0  0  0  0  0  0  0  0  0  0  0  0
   -7.8130    6.1307  -19.7941 H   0  0  0  0  0  0  0  0  0  0  0  0
   -6.3157    4.9476  -16.7370 H   0  0  0  0  0  0  0  0  0  0  0  0
   -4.9083    3.7487  -15.0631 H   0  0  0  0  0  0  0  0  0  0  0  0
   -3.6440    1.0420  -15.0570 H   0  0  0  0  0  0  0  0  0  0  0  0
   -3.2250   -0.4570  -13.6610 H   0  0  0  0  0  0  0  0  0  0  0  0
   -5.2274   -2.7387  -12.3743 H   0  0  0  0  0  0  0  0  0  0  0  0
   -4.8185   -3.1010   -8.3433 H   0  0  0  0  0  0  0  0  0  0  0  0
   -5.9873   -3.7064   -9.5656 H   0  0  0  0  0  0  0  0  0  0  0  0
   -4.2950   -4.3088   -9.5656 H   0  0  0  0  0  0  0  0  0  0  0  0
   -7.5353    1.1690  -18.4381 H   0  0  0  0  0  0  0  0  0  0  0  0
   -8.9746    2.5554  -16.7237 H   0  0  0  0  0  0  0  0  0  0  0  0
   -9.6197    1.6372  -12.9405 H   0  0  0  0  0  0  0  0  0  0  0  0
   -9.4640    0.5403  -14.3544 H   0  0  0  0  0  0  0  0  0  0  0  0
   -8.6275    2.1299  -14.3544 H   0  0  0  0  0  0  0  0  0  0  0  0
  1  2  1  0
  2  3  1  0
  3  4  1  0
  4  5  2  0
  5  6  1  0
  6  7  2  0
  7  8  1  0
  8  9  2  0
  9 10  1  0
 10 11  1  0
 11 12  1  0
 12 13  2  0
 13 14  1  0
 14 15  1  0
 15 16  1  0
 16 17  2  0
 16 18  1  0
 18 19  1  0
 19 20  1  0
 20 21  2  0
 21 22  1  0
 21 23  1  0
 23 24  1  0
 14 25  2  0
 25 26  1  0
 25 27  1  0
  9 28  1  0
 28 29  2  0
 29 30  1  0
 30 31  1  0
 31 32  1  0
 30  3  2  0
 28  5  1  0
 27 11  2  0
 24 19  2  0
  1 33  1  0
  1 34  1  0
  1 35  1  0
  4 36  1  0
  7 37  1  0
  8 38  1  0
 12 39  1  0
 13 40  1  0
 15 41  1  0
 18 42  1  0
 20 43  1  0
 22 44  1  0
 22 45  1  0
 22 46  1  0
 27 47  1  0
 29 48  1  0
 32 49  1  0
 32 50  1  0
 32 51  1  0
M  END
>  <meeko>  (9) 
{"is_sidechain": false}

>  <vina_affinity_kcal_mol>  (9) 
-8.705

>  <pose_rank>  (9) 
9

$$$$

     RDKit          3D

 51 54  0  0  0  0  0  0  0  0999 V2000
   -5.1510    4.6290  -16.9390 C   0  0  0  0  0  0  0  0  0  0  0  0
   -6.5120    4.2260  -16.9990 O   0  0  0  0  0  0  0  0  0  0  0  0
   -6.8960    3.1620  -16.2180 C   0  0  0  0  0  0  0  0  0  0  0  0
   -6.0300    2.4270  -15.4010 C   0  0  0  0  0  0  0  0  0  0  0  0
   -6.4730    1.3600  -14.6320 C   0  0  0  0  0  0  0  0  0  0  0  0
   -5.5810    0.6970  -13.8740 N   0  0  0  0  0  0  0  0  0  0  0  0
   -6.0130   -0.3480  -13.1350 C   0  0  0  0  0  0  0  0  0  0  0  0
   -7.3220   -0.7770  -13.1070 C   0  0  0  0  0  0  0  0  0  0  0  0
   -8.2430   -0.0710  -13.8760 C   0  0  0  0  0  0  0  0  0  0  0  0
   -9.5610   -0.4750  -13.9190 O   0  0  0  0  0  0  0  0  0  0  0  0
  -10.3540   -0.1620  -12.8360 C   0  0  0  0  0  0  0  0  0  0  0  0
  -11.0480    1.0420  -12.7120 C   0  0  0  0  0  0  0  0  0  0  0  0
  -11.8600    1.2750  -11.5950 C   0  0  0  0  0  0  0  0  0  0  0  0
  -11.9960    0.3060  -10.5980 C   0  0  0  0  0  0  0  0  0  0  0  0
  -12.8050    0.4780   -9.4490 N   0  0  0  0  0  0  0  0  0  0  0  0
  -14.1410    0.1310   -9.2880 C   0  0  0  0  0  0  0  0  0  0  0  0
  -14.8470   -0.3220  -10.1770 O   0  0  0  0  0  0  0  0  0  0  0  0
  -14.5410    0.3690   -7.9840 N   0  0  0  0  0  0  0  0  0  0  0  0
  -15.8290    0.2010   -7.5130 C   0  0  0  0  0  0  0  0  0  0  0  0
  -16.3030   -1.0170   -6.9600 C   0  0  0  0  0  0  0  0  0  0  0  0
  -17.6050   -0.7590   -6.6130 C   0  0  0  0  0  0  0  0  0  0  0  0
  -18.6880   -1.5480   -6.0010 C   0  0  0  0  0  0  0  0  0  0  0  0
  -17.9000    0.5280   -6.9280 O   0  0  0  0  0  0  0  0  0  0  0  0
  -16.7900    1.1280   -7.4870 N   0  0  0  0  0  0  0  0  0  0  0  0
  -11.3130   -0.9160  -10.7560 C   0  0  0  0  0  0  0  0  0  0  0  0
  -11.4550   -2.1740   -9.5730 Cl  0  0  0  0  0  0  0  0  0  0  0  0
  -10.5000   -1.1520  -11.8670 C   0  0  0  0  0  0  0  0  0  0  0  0
   -7.8340    1.0120  -14.6790 C   0  0  0  0  0  0  0  0  0  0  0  0
   -8.7170    1.7480  -15.5020 C   0  0  0  0  0  0  0  0  0  0  0  0
   -8.2570    2.8190  -16.2710 C   0  0  0  0  0  0  0  0  0  0  0  0
   -9.0460    3.5830  -17.0920 O   0  0  0  0  0  0  0  0  0  0  0  0
   -9.9790    4.4620  -16.4830 C   0  0  0  0  0  0  0  0  0  0  0  0
   -4.8417    4.7206  -15.8873 H   0  0  0  0  0  0  0  0  0  0  0  0
   -4.5237    3.8780  -17.4416 H   0  0  0  0  0  0  0  0  0  0  0  0
   -5.0337    5.6004  -17.4416 H   0  0  0  0  0  0  0  0  0  0  0  0
   -4.9658    2.7032  -15.3672 H   0  0  0  0  0  0  0  0  0  0  0  0
   -5.2774   -0.8875  -12.5202 H   0  0  0  0  0  0  0  0  0  0  0  0
   -7.6272   -1.6429  -12.5011 H   0  0  0  0  0  0  0  0  0  0  0  0
  -10.9571    1.8104  -13.4938 H   0  0  0  0  0  0  0  0  0  0  0  0
  -12.3962    2.2309  -11.5018 H   0  0  0  0  0  0  0  0  0  0  0  0
  -12.3930    1.0550   -8.7280 H   0  0  0  0  0  0  0  0  0  0  0  0
  -13.8370    0.5670   -7.2950 H   0  0  0  0  0  0  0  0  0  0  0  0
  -15.7491   -1.9593   -6.8368 H   0  0  0  0  0  0  0  0  0  0  0  0
  -18.6093   -1.4907   -4.9053 H   0  0  0  0  0  0  0  0  0  0  0  0
  -19.6606   -1.1453   -6.3203 H   0  0  0  0  0  0  0  0  0  0  0  0
  -18.6028   -2.5972   -6.3203 H   0  0  0  0  0  0  0  0  0  0  0  0
   -9.9780   -2.1141  -11.9761 H   0  0  0  0  0  0  0  0  0  0  0  0
   -9.7815    1.4731  -15.5371 H   0  0  0  0  0  0  0  0  0  0  0  0
   -9.8961    4.3839  -15.3889 H   0  0  0  0  0  0  0  0  0  0  0  0
   -9.7661    5.4954  -16.7940 H   0  0  0  0  0  0  0  0  0  0  0  0
  -10.9979    4.1880  -16.7940 H   0  0  0  0  0  0  0  0  0  0  0  0
  1  2  1  0
  2  3  1  0
  3  4  1  0
  4  5  2  0
  5  6  1  0
  6  7  2  0
  7  8  1  0
  8  9  2  0
  9 10  1  0
 10 11  1  0
 11 12  1  0
 12 13  2  0
 13 14  1  0
 14 15  1  0
 15 16  1  0
 16 17  2  0
 16 18  1  0
 18 19  1  0
 19 20  1  0
 20 21  2  0
 21 22  1  0
 21 23  1  0
 23 24  1  0
 14 25  2  0
 25 26  1  0
 25 27  1  0
  9 28  1  0
 28 29  2  0
 29 30  1  0
 30 31  1  0
 31 32  1  0
 30  3  2  0
 28  5  1  0
 27 11  2  0
 24 19  2  0
  1 33  1  0
  1 34  1  0
  1 35  1  0
  4 36  1  0
  7 37  1  0
  8 38  1  0
 12 39  1  0
 13 40  1  0
 15 41  1  0
 18 42  1  0
 20 43  1  0
 22 44  1  0
 22 45  1  0
 22 46  1  0
 27 47  1  0
 29 48  1  0
 32 49  1  0
 32 50  1  0
 32 51  1  0
M  END
>  <meeko>  (10) 
{"is_sidechain": false}

>  <vina_affinity_kcal_mol>  (10) 
-8.611

>  <pose_rank>  (10) 
10

$$$$
