
     RDKit          3D

 62 67  0  0  0  0  0  0  0  0999 V2000
    8.1181    2.7798    0.1264 C   0  0  0  0  0  0  0  0  0  0  0  0
    7.4995    1.3890    0.2793 C   0  0  0  0  0  0  0  0  0  0  0  0
    5.9819    1.4309    0.1147 C   0  0  0  0  0  0  0  0  0  0  0  0
    5.4406    0.1169    0.2655 O   0  0  0  0  0  0  0  0  0  0  0  0
    4.0857   -0.0211    0.1323 C   0  0  0  0  0  0  0  0  0  0  0  0
    3.6194   -1.3263    0.2905 C   0  0  0  0  0  0  0  0  0  0  0  0
    2.2589   -1.6470    0.1826 C   0  0  0  0  0  0  0  0  0  0  0  0
    1.3617   -0.6086   -0.1147 C   0  0  0  0  0  0  0  0  0  0  0  0
    1.8108    0.7110   -0.2288 C   0  0  0  0  0  0  0  0  0  0  0  0
    3.1812    1.0103   -0.1210 C   0  0  0  0  0  0  0  0  0  0  0  0
    0.7749    1.5825   -0.4184 N   0  0  0  0  0  0  0  0  0  0  0  0
   -0.2989    0.8290   -0.4153 C   0  0  0  0  0  0  0  0  0  0  0  0
   -0.0148   -0.5184   -0.3053 N   0  0  0  0  0  0  0  0  0  0  0  0
   -1.0191   -1.5272   -0.3927 C   0  0  0  0  0  0  0  0  0  0  0  0
   -0.7017   -2.8533   -0.6206 C   0  0  0  0  0  0  0  0  0  0  0  0
   -1.7402   -3.7765   -0.7051 C   0  0  0  0  0  0  0  0  0  0  0  0
   -3.0701   -3.3633   -0.5706 C   0  0  0  0  0  0  0  0  0  0  0  0
   -4.1170   -4.2949   -0.6641 C   0  0  0  0  0  0  0  0  0  0  0  0
   -5.4388   -3.8841   -0.5480 C   0  0  0  0  0  0  0  0  0  0  0  0
   -5.7182   -2.5403   -0.3341 C   0  0  0  0  0  0  0  0  0  0  0  0
   -4.6849   -1.5899   -0.2281 C   0  0  0  0  0  0  0  0  0  0  0  0
   -5.1093   -0.2485   -0.0041 N   0  0  0  0  0  0  0  0  0  0  0  0
   -4.9794    0.5721   -1.2237 C   0  0  0  0  0  0  0  0  0  0  0  0
   -5.1111    2.0675   -0.9023 C   0  0  0  0  0  0  0  0  0  0  0  0
   -5.9716    2.2835    0.3420 C   0  0  0  0  0  0  0  0  0  0  0  0
   -6.1681    3.7126    0.6058 N   0  0  0  0  0  0  0  0  0  0  0  0
   -5.3515    1.5976    1.5697 C   0  0  0  0  0  0  0  0  0  0  0  0
   -4.5202    0.3670    1.1905 C   0  0  0  0  0  0  0  0  0  0  0  0
   -3.3315   -1.9935   -0.3538 C   0  0  0  0  0  0  0  0  0  0  0  0
   -2.3070   -1.1072   -0.2841 N   0  0  0  0  0  0  0  0  0  0  0  0
    8.2521    0.3067   -0.5212 C   0  0  0  0  0  0  0  0  0  0  0  0
    8.9935   -0.0886    0.6647 O   0  0  0  0  0  0  0  0  0  0  0  0
    8.0422    0.6225    1.5026 C   0  0  0  0  0  0  0  0  0  0  0  0
    7.7188    3.4681    0.8793 H   0  0  0  0  0  0  0  0  0  0  0  0
    9.2074    2.7556    0.2433 H   0  0  0  0  0  0  0  0  0  0  0  0
    7.8997    3.1962   -0.8629 H   0  0  0  0  0  0  0  0  0  0  0  0
    5.5536    2.0923    0.8782 H   0  0  0  0  0  0  0  0  0  0  0  0
    5.7369    1.8160   -0.8831 H   0  0  0  0  0  0  0  0  0  0  0  0
    4.3321   -2.1189    0.5150 H   0  0  0  0  0  0  0  0  0  0  0  0
    1.9454   -2.6682    0.3601 H   0  0  0  0  0  0  0  0  0  0  0  0
    3.4789    2.0452   -0.2253 H   0  0  0  0  0  0  0  0  0  0  0  0
   -1.3133    1.1912   -0.5266 H   0  0  0  0  0  0  0  0  0  0  0  0
    0.3061   -3.2020   -0.7919 H   0  0  0  0  0  0  0  0  0  0  0  0
   -1.5029   -4.8216   -0.8934 H   0  0  0  0  0  0  0  0  0  0  0  0
   -3.9075   -5.3491   -0.8326 H   0  0  0  0  0  0  0  0  0  0  0  0
   -6.2487   -4.6046   -0.6222 H   0  0  0  0  0  0  0  0  0  0  0  0
   -6.7514   -2.2138   -0.2380 H   0  0  0  0  0  0  0  0  0  0  0  0
   -5.7827    0.2872   -1.9149 H   0  0  0  0  0  0  0  0  0  0  0  0
   -4.0290    0.4082   -1.7464 H   0  0  0  0  0  0  0  0  0  0  0  0
   -4.1106    2.4898   -0.7367 H   0  0  0  0  0  0  0  0  0  0  0  0
   -5.5271    2.5895   -1.7726 H   0  0  0  0  0  0  0  0  0  0  0  0
   -6.9612    1.8439    0.1588 H   0  0  0  0  0  0  0  0  0  0  0  0
   -6.6458    4.1427   -0.1852 H   0  0  0  0  0  0  0  0  0  0  0  0
   -6.7862    3.8263    1.4086 H   0  0  0  0  0  0  0  0  0  0  0  0
   -4.7080    2.2847    2.1344 H   0  0  0  0  0  0  0  0  0  0  0  0
   -6.1585    1.3060    2.2545 H   0  0  0  0  0  0  0  0  0  0  0  0
   -4.5105   -0.3292    2.0385 H   0  0  0  0  0  0  0  0  0  0  0  0
   -3.4861    0.6824    1.0089 H   0  0  0  0  0  0  0  0  0  0  0  0
    7.6608   -0.5302   -0.9062 H   0  0  0  0  0  0  0  0  0  0  0  0
    8.9167    0.6680   -1.3117 H   0  0  0  0  0  0  0  0  0  0  0  0
    7.3600   -0.0776    1.9954 H   0  0  0  0  0  0  0  0  0  0  0  0
    8.5461    1.2259    2.2637 H   0  0  0  0  0  0  0  0  0  0  0  0
  1  2  1  0
  2  3  1  0
  3  4  1  0
  4  5  1  0
  5  6  2  0
  6  7  1  0
  7  8  2  0
  8  9  1  0
  9 10  2  0
  9 11  1  0
 11 12  2  0
 12 13  1  0
 13 14  1  0
 14 15  1  0
 15 16  2  0
 16 17  1  0
 17 18  2  0
 18 19  1  0
 19 20  2  0
 20 21  1  0
 21 22  1  0
 22 23  1  0
 23 24  1  0
 24 25  1  0
 25 26  1  0
 25 27  1  0
 27 28  1  0
 21 29  2  0
 29 30  1  0
  2 31  1  0
 31 32  1  0
 32 33  1  0
 33  2  1  0
 10  5  1  0
 30 14  2  0
 13  8  1  0
 29 17  1  0
 28 22  1  0
  1 34  1  0
  1 35  1  0
  1 36  1  0
  3 37  1  0
  3 38  1  0
  6 39  1  0
  7 40  1  0
 10 41  1  0
 12 42  1  0
 15 43  1  0
 16 44  1  0
 18 45  1  0
 19 46  1  0
 20 47  1  0
 23 48  1  0
 23 49  1  0
 24 50  1  0
 24 51  1  0
 25 52  1  0
 26 53  1  0
 26 54  1  0
 27 55  1  0
 27 56  1  0
 28 57  1  0
 28 58  1  0
 31 59  1  0
 31 60  1  0
 33 61  1  0
 33 62  1  0
M  END
$$$$
