
     RDKit          3D

 62 67  0  0  0  0  0  0  0  0999 V2000
  -13.0240    0.3210   -7.5570 C   0  0  0  0  0  0  0  0  0  0  0  0
  -14.3000    0.1180   -8.3770 C   0  0  0  0  0  0  0  0  0  0  0  0
  -13.9810   -0.2420   -9.8270 C   0  0  0  0  0  0  0  0  0  0  0  0
  -12.6710    0.2180  -10.1640 O   0  0  0  0  0  0  0  0  0  0  0  0
  -12.5670    1.1100  -11.1970 C   0  0  0  0  0  0  0  0  0  0  0  0
  -11.3450    1.0780  -11.8690 C   0  0  0  0  0  0  0  0  0  0  0  0
  -11.0690    1.9260  -12.9500 C   0  0  0  0  0  0  0  0  0  0  0  0
  -12.0610    2.8400  -13.3360 C   0  0  0  0  0  0  0  0  0  0  0  0
  -13.3080    2.8500  -12.7020 C   0  0  0  0  0  0  0  0  0  0  0  0
  -13.5630    1.9930  -11.6170 C   0  0  0  0  0  0  0  0  0  0  0  0
  -14.1660    3.7370  -13.2890 N   0  0  0  0  0  0  0  0  0  0  0  0
  -13.4780    4.2670  -14.2720 C   0  0  0  0  0  0  0  0  0  0  0  0
  -12.1710    3.8210  -14.3190 N   0  0  0  0  0  0  0  0  0  0  0  0
  -11.2110    4.3460  -15.2340 C   0  0  0  0  0  0  0  0  0  0  0  0
  -11.4210    5.5320  -15.9110 C   0  0  0  0  0  0  0  0  0  0  0  0
  -10.4400    5.9720  -16.7960 C   0  0  0  0  0  0  0  0  0  0  0  0
   -9.2780    5.2190  -16.9970 C   0  0  0  0  0  0  0  0  0  0  0  0
   -8.2930    5.6600  -17.8960 C   0  0  0  0  0  0  0  0  0  0  0  0
   -7.1450    4.9060  -18.1100 C   0  0  0  0  0  0  0  0  0  0  0  0
   -6.9770    3.7110  -17.4210 C   0  0  0  0  0  0  0  0  0  0  0  0
   -7.9460    3.2550  -16.5090 C   0  0  0  0  0  0  0  0  0  0  0  0
   -7.6480    2.0180  -15.8670 N   0  0  0  0  0  0  0  0  0  0  0  0
   -6.2210    1.9280  -15.5010 C   0  0  0  0  0  0  0  0  0  0  0  0
   -5.8360    0.4910  -15.1250 C   0  0  0  0  0  0  0  0  0  0  0  0
   -7.0420   -0.2720  -14.5790 C   0  0  0  0  0  0  0  0  0  0  0  0
   -6.6610   -1.6200  -14.1430 N   0  0  0  0  0  0  0  0  0  0  0  0
   -8.1660   -0.3520  -15.6240 C   0  0  0  0  0  0  0  0  0  0  0  0
   -8.1510    0.8420  -16.5860 C   0  0  0  0  0  0  0  0  0  0  0  0
   -9.1270    4.0090  -16.2880 C   0  0  0  0  0  0  0  0  0  0  0  0
  -10.0980    3.5930  -15.4360 N   0  0  0  0  0  0  0  0  0  0  0  0
  -15.3410   -0.7630   -7.6590 C   0  0  0  0  0  0  0  0  0  0  0  0
  -16.0470    0.4150   -7.1850 O   0  0  0  0  0  0  0  0  0  0  0  0
  -15.3410    1.2350   -8.1550 C   0  0  0  0  0  0  0  0  0  0  0  0
  -13.2671    0.2823   -6.4849 H   0  0  0  0  0  0  0  0  0  0  0  0
  -12.3027   -0.4737   -7.7983 H   0  0  0  0  0  0  0  0  0  0  0  0
  -12.5850    1.3003   -7.7983 H   0  0  0  0  0  0  0  0  0  0  0  0
  -14.0274   -1.3340   -9.9506 H   0  0  0  0  0  0  0  0  0  0  0  0
  -14.7158    0.2381  -10.4900 H   0  0  0  0  0  0  0  0  0  0  0  0
  -10.5743    0.3652  -11.5403 H   0  0  0  0  0  0  0  0  0  0  0  0
  -10.1057    1.8766  -13.4788 H   0  0  0  0  0  0  0  0  0  0  0  0
  -14.5363    2.0181  -11.1050 H   0  0  0  0  0  0  0  0  0  0  0  0
  -13.8980    4.9916  -14.9852 H   0  0  0  0  0  0  0  0  0  0  0  0
  -12.3409    6.1146  -15.7547 H   0  0  0  0  0  0  0  0  0  0  0  0
  -10.5795    6.9175  -17.3405 H   0  0  0  0  0  0  0  0  0  0  0  0
   -8.4311    6.6091  -18.4347 H   0  0  0  0  0  0  0  0  0  0  0  0
   -6.3772    5.2518  -18.8177 H   0  0  0  0  0  0  0  0  0  0  0  0
   -6.0707    3.1114  -17.5917 H   0  0  0  0  0  0  0  0  0  0  0  0
   -5.6098    2.2514  -16.3564 H   0  0  0  0  0  0  0  0  0  0  0  0
   -6.0423    2.5764  -14.6306 H   0  0  0  0  0  0  0  0  0  0  0  0
   -5.4575   -0.0260  -16.0191 H   0  0  0  0  0  0  0  0  0  0  0  0
   -5.0611    0.5276  -14.3452 H   0  0  0  0  0  0  0  0  0  0  0  0
   -7.4163    0.2838  -13.7066 H   0  0  0  0  0  0  0  0  0  0  0  0
   -6.2550   -1.5740  -13.2090 H   0  0  0  0  0  0  0  0  0  0  0  0
   -7.4970   -2.1980  -14.0620 H   0  0  0  0  0  0  0  0  0  0  0  0
   -8.0428   -1.2771  -16.2062 H   0  0  0  0  0  0  0  0  0  0  0  0
   -9.1262   -0.3404  -15.0875 H   0  0  0  0  0  0  0  0  0  0  0  0
   -7.4940    0.6211  -17.4401 H   0  0  0  0  0  0  0  0  0  0  0  0
   -9.1676    1.0365  -16.9585 H   0  0  0  0  0  0  0  0  0  0  0  0
  -15.9336   -1.3945   -8.3372 H   0  0  0  0  0  0  0  0  0  0  0  0
  -15.0100   -1.5291   -6.9424 H   0  0  0  0  0  0  0  0  0  0  0  0
  -15.9335    1.4762   -9.0499 H   0  0  0  0  0  0  0  0  0  0  0  0
  -15.0098    2.2474   -7.8804 H   0  0  0  0  0  0  0  0  0  0  0  0
  1  2  1  0
  2  3  1  0
  3  4  1  0
  4  5  1  0
  5  6  2  0
  6  7  1  0
  7  8  2  0
  8  9  1  0
  9 10  2  0
  9 11  1  0
 11 12  2  0
 12 13  1  0
 13 14  1  0
 14 15  1  0
 15 16  2  0
 16 17  1  0
 17 18  2  0
 18 19  1  0
 19 20  2  0
 20 21  1  0
 21 22  1  0
 22 23  1  0
 23 24  1  0
 24 25  1  0
 25 26  1  0
 25 27  1  0
 27 28  1  0
 21 29  2  0
 29 30  1  0
  2 31  1  0
 31 32  1  0
 32 33  1  0
 33  2  1  0
 10  5  1  0
 30 14  2  0
 13  8  1  0
 29 17  1  0
 28 22  1  0
  1 34  1  0
  1 35  1  0
  1 36  1  0
  3 37  1  0
  3 38  1  0
  6 39  1  0
  7 40  1  0
 10 41  1  0
 12 42  1  0
 15 43  1  0
 16 44  1  0
 18 45  1  0
 19 46  1  0
 20 47  1  0
 23 48  1  0
 23 49  1  0
 24 50  1  0
 24 51  1  0
 25 52  1  0
 26 53  1  0
 26 54  1  0
 27 55  1  0
 27 56  1  0
 28 57  1  0
 28 58  1  0
 31 59  1  0
 31 60  1  0
 33 61  1  0
 33 62  1  0
M  END
>  <meeko>  (1) 
{"is_sidechain": false}

>  <vina_affinity_kcal_mol>  (1) 
-10.445

>  <pose_rank>  (1) 
1

$$$$

     RDKit          3D

 62 67  0  0  0  0  0  0  0  0999 V2000
  -13.5340   -2.2530   -9.8250 C   0  0  0  0  0  0  0  0  0  0  0  0
  -12.0320   -2.0990  -10.0750 C   0  0  0  0  0  0  0  0  0  0  0  0
  -11.5910   -0.6420   -9.9450 C   0  0  0  0  0  0  0  0  0  0  0  0
  -12.7030    0.2240  -10.1800 O   0  0  0  0  0  0  0  0  0  0  0  0
  -12.5940    1.1160  -11.2120 C   0  0  0  0  0  0  0  0  0  0  0  0
  -11.3700    1.0810  -11.8800 C   0  0  0  0  0  0  0  0  0  0  0  0
  -11.0880    1.9290  -12.9600 C   0  0  0  0  0  0  0  0  0  0  0  0
  -12.0770    2.8460  -13.3490 C   0  0  0  0  0  0  0  0  0  0  0  0
  -13.3260    2.8580  -12.7190 C   0  0  0  0  0  0  0  0  0  0  0  0
  -13.5860    2.0010  -11.6350 C   0  0  0  0  0  0  0  0  0  0  0  0
  -14.1800    3.7480  -13.3080 N   0  0  0  0  0  0  0  0  0  0  0  0
  -13.4870    4.2760  -14.2890 C   0  0  0  0  0  0  0  0  0  0  0  0
  -12.1820    3.8280  -14.3320 N   0  0  0  0  0  0  0  0  0  0  0  0
  -11.2170    4.3500  -15.2430 C   0  0  0  0  0  0  0  0  0  0  0  0
  -11.4190    5.5410  -15.9150 C   0  0  0  0  0  0  0  0  0  0  0  0
  -10.4350    5.9790  -16.7970 C   0  0  0  0  0  0  0  0  0  0  0  0
   -9.2770    5.2200  -17.0000 C   0  0  0  0  0  0  0  0  0  0  0  0
   -8.2880    5.6590  -17.8960 C   0  0  0  0  0  0  0  0  0  0  0  0
   -7.1450    4.8990  -18.1120 C   0  0  0  0  0  0  0  0  0  0  0  0
   -6.9850    3.7000  -17.4290 C   0  0  0  0  0  0  0  0  0  0  0  0
   -7.9580    3.2450  -16.5190 C   0  0  0  0  0  0  0  0  0  0  0  0
   -7.6680    2.0030  -15.8830 N   0  0  0  0  0  0  0  0  0  0  0  0
   -6.2430    1.9050  -15.5130 C   0  0  0  0  0  0  0  0  0  0  0  0
   -5.8660    0.4630  -15.1430 C   0  0  0  0  0  0  0  0  0  0  0  0
   -7.0780   -0.2960  -14.6040 C   0  0  0  0  0  0  0  0  0  0  0  0
   -6.7050   -1.6480  -14.1740 N   0  0  0  0  0  0  0  0  0  0  0  0
   -8.1990   -0.3650  -15.6530 C   0  0  0  0  0  0  0  0  0  0  0  0
   -8.1750    0.8340  -16.6090 C   0  0  0  0  0  0  0  0  0  0  0  0
   -9.1340    4.0060  -16.2960 C   0  0  0  0  0  0  0  0  0  0  0  0
  -10.1080    3.5910  -15.4480 N   0  0  0  0  0  0  0  0  0  0  0  0
  -11.1880   -3.1470   -9.3220 C   0  0  0  0  0  0  0  0  0  0  0  0
  -11.1180   -3.9790  -10.5110 O   0  0  0  0  0  0  0  0  0  0  0  0
  -11.5510   -2.8580  -11.3280 C   0  0  0  0  0  0  0  0  0  0  0  0
  -13.7253   -2.2726   -8.7419 H   0  0  0  0  0  0  0  0  0  0  0  0
  -14.0697   -1.4051  -10.2767 H   0  0  0  0  0  0  0  0  0  0  0  0
  -13.8865   -3.1920  -10.2767 H   0  0  0  0  0  0  0  0  0  0  0  0
  -11.2005   -0.4679   -8.9315 H   0  0  0  0  0  0  0  0  0  0  0  0
  -10.8055   -0.4332  -10.6862 H   0  0  0  0  0  0  0  0  0  0  0  0
  -10.6024    0.3659  -11.5491 H   0  0  0  0  0  0  0  0  0  0  0  0
  -10.1230    1.8775  -13.4856 H   0  0  0  0  0  0  0  0  0  0  0  0
  -14.5608    2.0281  -11.1261 H   0  0  0  0  0  0  0  0  0  0  0  0
  -13.9031    5.0012  -15.0038 H   0  0  0  0  0  0  0  0  0  0  0  0
  -12.3353    6.1286  -15.7566 H   0  0  0  0  0  0  0  0  0  0  0  0
  -10.5686    6.9276  -17.3377 H   0  0  0  0  0  0  0  0  0  0  0  0
   -8.4194    6.6114  -18.4305 H   0  0  0  0  0  0  0  0  0  0  0  0
   -6.3742    5.2435  -18.8171 H   0  0  0  0  0  0  0  0  0  0  0  0
   -6.0824    3.0956  -17.6022 H   0  0  0  0  0  0  0  0  0  0  0  0
   -5.6275    2.2300  -16.3647 H   0  0  0  0  0  0  0  0  0  0  0  0
   -6.0639    2.5483  -14.6389 H   0  0  0  0  0  0  0  0  0  0  0  0
   -5.4879   -0.0516  -16.0387 H   0  0  0  0  0  0  0  0  0  0  0  0
   -5.0927    0.4913  -14.3612 H   0  0  0  0  0  0  0  0  0  0  0  0
   -7.4523    0.2573  -13.7301 H   0  0  0  0  0  0  0  0  0  0  0  0
   -6.7200   -1.6980  -13.1560 H   0  0  0  0  0  0  0  0  0  0  0  0
   -7.4050   -2.3120  -14.5030 H   0  0  0  0  0  0  0  0  0  0  0  0
   -8.0785   -1.2877  -16.2395 H   0  0  0  0  0  0  0  0  0  0  0  0
   -9.1609   -0.3513  -15.1195 H   0  0  0  0  0  0  0  0  0  0  0  0
   -7.5168    0.6140  -17.4625 H   0  0  0  0  0  0  0  0  0  0  0  0
   -9.1895    1.0358  -16.9833 H   0  0  0  0  0  0  0  0  0  0  0  0
  -10.2112   -2.7719   -8.9826 H   0  0  0  0  0  0  0  0  0  0  0  0
  -11.5564   -3.5714   -8.3764 H   0  0  0  0  0  0  0  0  0  0  0  0
  -10.7330   -2.3566  -11.8659 H   0  0  0  0  0  0  0  0  0  0  0  0
  -12.2422   -3.0254  -12.1672 H   0  0  0  0  0  0  0  0  0  0  0  0
  1  2  1  0
  2  3  1  0
  3  4  1  0
  4  5  1  0
  5  6  2  0
  6  7  1  0
  7  8  2  0
  8  9  1  0
  9 10  2  0
  9 11  1  0
 11 12  2  0
 12 13  1  0
 13 14  1  0
 14 15  1  0
 15 16  2  0
 16 17  1  0
 17 18  2  0
 18 19  1  0
 19 20  2  0
 20 21  1  0
 21 22  1  0
 22 23  1  0
 23 24  1  0
 24 25  1  0
 25 26  1  0
 25 27  1  0
 27 28  1  0
 21 29  2  0
 29 30  1  0
  2 31  1  0
 31 32  1  0
 32 33  1  0
 33  2  1  0
 10  5  1  0
 30 14  2  0
 13  8  1  0
 29 17  1  0
 28 22  1  0
  1 34  1  0
  1 35  1  0
  1 36  1  0
  3 37  1  0
  3 38  1  0
  6 39  1  0
  7 40  1  0
 10 41  1  0
 12 42  1  0
 15 43  1  0
 16 44  1  0
 18 45  1  0
 19 46  1  0
 20 47  1  0
 23 48  1  0
 23 49  1  0
 24 50  1  0
 24 51  1  0
 25 52  1  0
 26 53  1  0
 26 54  1  0
 27 55  1  0
 27 56  1  0
 28 57  1  0
 28 58  1  0
 31 59  1  0
 31 60  1  0
 33 61  1  0
 33 62  1  0
M  END
>  <meeko>  (2) 
{"is_sidechain": false}

>  <vina_affinity_kcal_mol>  (2) 
-10.437

>  <pose_rank>  (2) 
2

$$$$

     RDKit          3D

 62 67  0  0  0  0  0  0  0  0999 V2000
  -11.7150   -3.5140  -10.2500 C   0  0  0  0  0  0  0  0  0  0  0  0
  -12.3120   -2.1770   -9.8080 C   0  0  0  0  0  0  0  0  0  0  0  0
  -11.6270   -1.0020  -10.5030 C   0  0  0  0  0  0  0  0  0  0  0  0
  -12.4000    0.1870  -10.3230 O   0  0  0  0  0  0  0  0  0  0  0  0
  -12.3700    1.1110  -11.3320 C   0  0  0  0  0  0  0  0  0  0  0  0
  -11.1860    1.1250  -12.0690 C   0  0  0  0  0  0  0  0  0  0  0  0
  -10.9850    2.0110  -13.1360 C   0  0  0  0  0  0  0  0  0  0  0  0
  -12.0140    2.9160  -13.4400 C   0  0  0  0  0  0  0  0  0  0  0  0
  -13.2250    2.8800  -12.7400 C   0  0  0  0  0  0  0  0  0  0  0  0
  -13.4040    1.9850  -11.6700 C   0  0  0  0  0  0  0  0  0  0  0  0
  -14.1300    3.7660  -13.2520 N   0  0  0  0  0  0  0  0  0  0  0  0
  -13.5070    4.3400  -14.2530 C   0  0  0  0  0  0  0  0  0  0  0  0
  -12.1960    3.9240  -14.3840 N   0  0  0  0  0  0  0  0  0  0  0  0
  -11.2970    4.4950  -15.3320 C   0  0  0  0  0  0  0  0  0  0  0  0
  -11.5710    5.6920  -15.9670 C   0  0  0  0  0  0  0  0  0  0  0  0
  -10.6480    6.1800  -16.8880 C   0  0  0  0  0  0  0  0  0  0  0  0
   -9.4790    5.4630  -17.1670 C   0  0  0  0  0  0  0  0  0  0  0  0
   -8.5520    5.9520  -18.1030 C   0  0  0  0  0  0  0  0  0  0  0  0
   -7.3990    5.2340  -18.3930 C   0  0  0  0  0  0  0  0  0  0  0  0
   -7.1660    4.0280  -17.7450 C   0  0  0  0  0  0  0  0  0  0  0  0
   -8.0760    3.5230  -16.7970 C   0  0  0  0  0  0  0  0  0  0  0  0
   -7.7140    2.2790  -16.2040 N   0  0  0  0  0  0  0  0  0  0  0  0
   -8.5990    1.1870  -16.6520 C   0  0  0  0  0  0  0  0  0  0  0  0
   -8.4280   -0.0600  -15.7730 C   0  0  0  0  0  0  0  0  0  0  0  0
   -7.0250   -0.1150  -15.1720 C   0  0  0  0  0  0  0  0  0  0  0  0
   -6.8310   -1.3460  -14.3970 N   0  0  0  0  0  0  0  0  0  0  0  0
   -6.7510    1.1140  -14.2910 C   0  0  0  0  0  0  0  0  0  0  0  0
   -7.5430    2.3450  -14.7480 C   0  0  0  0  0  0  0  0  0  0  0  0
   -9.2620    4.2410  -16.4970 C   0  0  0  0  0  0  0  0  0  0  0  0
  -10.1770    3.7770  -15.6090 N   0  0  0  0  0  0  0  0  0  0  0  0
  -13.8540   -2.1770   -9.8100 C   0  0  0  0  0  0  0  0  0  0  0  0
  -13.8800   -2.4560   -8.3840 O   0  0  0  0  0  0  0  0  0  0  0  0
  -12.4820   -2.0710   -8.2780 C   0  0  0  0  0  0  0  0  0  0  0  0
  -11.4497   -4.1082   -9.3631 H   0  0  0  0  0  0  0  0  0  0  0  0
  -12.4531   -4.0639  -10.8524 H   0  0  0  0  0  0  0  0  0  0  0  0
  -10.8129   -3.3315  -10.8524 H   0  0  0  0  0  0  0  0  0  0  0  0
  -10.6262   -0.8555  -10.0706 H   0  0  0  0  0  0  0  0  0  0  0  0
  -11.5394   -1.2179  -11.5780 H   0  0  0  0  0  0  0  0  0  0  0  0
  -10.3852    0.4187  -11.8046 H   0  0  0  0  0  0  0  0  0  0  0  0
  -10.0508    1.9977  -13.7167 H   0  0  0  0  0  0  0  0  0  0  0  0
  -14.3483    1.9741  -11.1060 H   0  0  0  0  0  0  0  0  0  0  0  0
  -13.9794    5.0766  -14.9195 H   0  0  0  0  0  0  0  0  0  0  0  0
  -12.4963    6.2457  -15.7498 H   0  0  0  0  0  0  0  0  0  0  0  0
  -10.8388    7.1350  -17.3995 H   0  0  0  0  0  0  0  0  0  0  0  0
   -8.7408    6.9100  -18.6095 H   0  0  0  0  0  0  0  0  0  0  0  0
   -6.6770    5.6171  -19.1292 H   0  0  0  0  0  0  0  0  0  0  0  0
   -6.2545    3.4574  -17.9765 H   0  0  0  0  0  0  0  0  0  0  0  0
   -9.6441    1.5256  -16.5955 H   0  0  0  0  0  0  0  0  0  0  0  0
   -8.3327    0.9241  -17.6864 H   0  0  0  0  0  0  0  0  0  0  0  0
   -9.1675   -0.0311  -14.9592 H   0  0  0  0  0  0  0  0  0  0  0  0
   -8.5782   -0.9532  -16.3972 H   0  0  0  0  0  0  0  0  0  0  0  0
   -6.3082   -0.1114  -16.0064 H   0  0  0  0  0  0  0  0  0  0  0  0
   -7.1660   -2.1440  -14.9360 H   0  0  0  0  0  0  0  0  0  0  0  0
   -5.8330   -1.4990  -14.2510 H   0  0  0  0  0  0  0  0  0  0  0  0
   -7.0330    0.8765  -13.2546 H   0  0  0  0  0  0  0  0  0  0  0  0
   -5.6804    1.3536  -14.3707 H   0  0  0  0  0  0  0  0  0  0  0  0
   -8.5285    2.3538  -14.2594 H   0  0  0  0  0  0  0  0  0  0  0  0
   -7.0012    3.2625  -14.4749 H   0  0  0  0  0  0  0  0  0  0  0  0
  -14.2990   -1.2086  -10.0825 H   0  0  0  0  0  0  0  0  0  0  0  0
  -14.4013   -2.8293  -10.5063 H   0  0  0  0  0  0  0  0  0  0  0  0
  -12.3280   -1.0565   -7.8818 H   0  0  0  0  0  0  0  0  0  0  0  0
  -11.8082   -2.6287   -7.6110 H   0  0  0  0  0  0  0  0  0  0  0  0
  1  2  1  0
  2  3  1  0
  3  4  1  0
  4  5  1  0
  5  6  2  0
  6  7  1  0
  7  8  2  0
  8  9  1  0
  9 10  2  0
  9 11  1  0
 11 12  2  0
 12 13  1  0
 13 14  1  0
 14 15  1  0
 15 16  2  0
 16 17  1  0
 17 18  2  0
 18 19  1  0
 19 20  2  0
 20 21  1  0
 21 22  1  0
 22 23  1  0
 23 24  1  0
 24 25  1  0
 25 26  1  0
 25 27  1  0
 27 28  1  0
 21 29  2  0
 29 30  1  0
  2 31  1  0
 31 32  1  0
 32 33  1  0
 33  2  1  0
 10  5  1  0
 30 14  2  0
 13  8  1  0
 29 17  1  0
 28 22  1  0
  1 34  1  0
  1 35  1  0
  1 36  1  0
  3 37  1  0
  3 38  1  0
  6 39  1  0
  7 40  1  0
 10 41  1  0
 12 42  1  0
 15 43  1  0
 16 44  1  0
 18 45  1  0
 19 46  1  0
 20 47  1  0
 23 48  1  0
 23 49  1  0
 24 50  1  0
 24 51  1  0
 25 52  1  0
 26 53  1  0
 26 54  1  0
 27 55  1  0
 27 56  1  0
 28 57  1  0
 28 58  1  0
 31 59  1  0
 31 60  1  0
 33 61  1  0
 33 62  1  0
M  END
>  <meeko>  (3) 
{"is_sidechain": false}

>  <vina_affinity_kcal_mol>  (3) 
-9.859

>  <pose_rank>  (3) 
3

$$$$

     RDKit          3D

 62 67  0  0  0  0  0  0  0  0999 V2000
   -0.8370    0.6710  -17.7410 C   0  0  0  0  0  0  0  0  0  0  0  0
   -1.7160   -0.1690  -18.6700 C   0  0  0  0  0  0  0  0  0  0  0  0
   -2.9440   -0.7100  -17.9400 C   0  0  0  0  0  0  0  0  0  0  0  0
   -4.1220   -0.0630  -18.4250 O   0  0  0  0  0  0  0  0  0  0  0  0
   -4.9130    0.5700  -17.5040 C   0  0  0  0  0  0  0  0  0  0  0  0
   -6.2820    0.3830  -17.6930 C   0  0  0  0  0  0  0  0  0  0  0  0
   -7.2350    0.9620  -16.8440 C   0  0  0  0  0  0  0  0  0  0  0  0
   -6.7720    1.7660  -15.7910 C   0  0  0  0  0  0  0  0  0  0  0  0
   -5.4010    1.9220  -15.5620 C   0  0  0  0  0  0  0  0  0  0  0  0
   -4.4620    1.3350  -16.4290 C   0  0  0  0  0  0  0  0  0  0  0  0
   -5.1580    2.6530  -14.4330 N   0  0  0  0  0  0  0  0  0  0  0  0
   -6.3460    2.9440  -13.9610 C   0  0  0  0  0  0  0  0  0  0  0  0
   -7.3740    2.4970  -14.7690 N   0  0  0  0  0  0  0  0  0  0  0  0
   -8.7440    2.7970  -14.5100 C   0  0  0  0  0  0  0  0  0  0  0  0
   -9.4610    2.1410  -13.5280 C   0  0  0  0  0  0  0  0  0  0  0  0
  -10.7980    2.4830  -13.3430 C   0  0  0  0  0  0  0  0  0  0  0  0
  -11.3960    3.4610  -14.1450 C   0  0  0  0  0  0  0  0  0  0  0  0
  -12.7470    3.8000  -13.9640 C   0  0  0  0  0  0  0  0  0  0  0  0
  -13.3480    4.7590  -14.7700 C   0  0  0  0  0  0  0  0  0  0  0  0
  -12.5980    5.3860  -15.7570 C   0  0  0  0  0  0  0  0  0  0  0  0
  -11.2400    5.0700  -15.9500 C   0  0  0  0  0  0  0  0  0  0  0  0
  -10.5870    5.7900  -16.9930 N   0  0  0  0  0  0  0  0  0  0  0  0
  -10.0240    7.0620  -16.5020 C   0  0  0  0  0  0  0  0  0  0  0  0
   -9.6260    7.9770  -17.6680 C   0  0  0  0  0  0  0  0  0  0  0  0
   -9.2710    7.1570  -18.9080 C   0  0  0  0  0  0  0  0  0  0  0  0
   -8.8110    8.0230  -19.9990 N   0  0  0  0  0  0  0  0  0  0  0  0
  -10.4660    6.3100  -19.3710 C   0  0  0  0  0  0  0  0  0  0  0  0
  -11.3920    5.9280  -18.2100 C   0  0  0  0  0  0  0  0  0  0  0  0
  -10.6160    4.0860  -15.1410 C   0  0  0  0  0  0  0  0  0  0  0  0
   -9.3180    3.7330  -15.3120 N   0  0  0  0  0  0  0  0  0  0  0  0
   -1.9650    0.5070  -20.0330 C   0  0  0  0  0  0  0  0  0  0  0  0
   -0.8950   -0.2680  -20.6390 O   0  0  0  0  0  0  0  0  0  0  0  0
   -0.9090   -1.1810  -19.5090 C   0  0  0  0  0  0  0  0  0  0  0  0
   -1.0816    0.4373  -16.6943 H   0  0  0  0  0  0  0  0  0  0  0  0
    0.2218    0.4405  -17.9304 H   0  0  0  0  0  0  0  0  0  0  0  0
   -1.0193    1.7391  -17.9304 H   0  0  0  0  0  0  0  0  0  0  0  0
   -3.0245   -1.7931  -18.1147 H   0  0  0  0  0  0  0  0  0  0  0  0
   -2.8405   -0.5139  -16.8626 H   0  0  0  0  0  0  0  0  0  0  0  0
   -6.6243   -0.2379  -18.5341 H   0  0  0  0  0  0  0  0  0  0  0  0
   -8.3108    0.7918  -16.9980 H   0  0  0  0  0  0  0  0  0  0  0  0
   -3.3843    1.4777  -16.2610 H   0  0  0  0  0  0  0  0  0  0  0  0
   -6.5078    3.4880  -13.0187 H   0  0  0  0  0  0  0  0  0  0  0  0
   -8.9868    1.3668  -12.9069 H   0  0  0  0  0  0  0  0  0  0  0  0
  -11.3876    1.9812  -12.5616 H   0  0  0  0  0  0  0  0  0  0  0  0
  -13.3339    3.3023  -13.1779 H   0  0  0  0  0  0  0  0  0  0  0  0
  -14.4073    5.0192  -14.6280 H   0  0  0  0  0  0  0  0  0  0  0  0
  -13.0735    6.1424  -16.3987 H   0  0  0  0  0  0  0  0  0  0  0  0
  -10.7772    7.5737  -15.8848 H   0  0  0  0  0  0  0  0  0  0  0  0
   -9.1243    6.8400  -15.9094 H   0  0  0  0  0  0  0  0  0  0  0  0
  -10.4678    8.6439  -17.9061 H   0  0  0  0  0  0  0  0  0  0  0  0
   -8.7441    8.5630  -17.3698 H   0  0  0  0  0  0  0  0  0  0  0  0
   -8.4500    6.4787  -18.6324 H   0  0  0  0  0  0  0  0  0  0  0  0
   -9.4070    7.8870  -20.8160 H   0  0  0  0  0  0  0  0  0  0  0  0
   -8.9220    8.9990  -19.7250 H   0  0  0  0  0  0  0  0  0  0  0  0
  -11.0432    6.8860  -20.1093 H   0  0  0  0  0  0  0  0  0  0  0  0
  -10.0713    5.3804  -19.8070 H   0  0  0  0  0  0  0  0  0  0  0  0
  -12.1487    6.7133  -18.0662 H   0  0  0  0  0  0  0  0  0  0  0  0
  -11.9004    4.9784  -18.4329 H   0  0  0  0  0  0  0  0  0  0  0  0
   -2.9590    0.3018  -20.4571 H   0  0  0  0  0  0  0  0  0  0  0  0
   -1.9593    1.6043  -20.1104 H   0  0  0  0  0  0  0  0  0  0  0  0
   -1.4420   -2.1233  -19.7041 H   0  0  0  0  0  0  0  0  0  0  0  0
    0.0365   -1.5864  -19.1194 H   0  0  0  0  0  0  0  0  0  0  0  0
  1  2  1  0
  2  3  1  0
  3  4  1  0
  4  5  1  0
  5  6  2  0
  6  7  1  0
  7  8  2  0
  8  9  1  0
  9 10  2  0
  9 11  1  0
 11 12  2  0
 12 13  1  0
 13 14  1  0
 14 15  1  0
 15 16  2  0
 16 17  1  0
 17 18  2  0
 18 19  1  0
 19 20  2  0
 20 21  1  0
 21 22  1  0
 22 23  1  0
 23 24  1  0
 24 25  1  0
 25 26  1  0
 25 27  1  0
 27 28  1  0
 21 29  2  0
 29 30  1  0
  2 31  1  0
 31 32  1  0
 32 33  1  0
 33  2  1  0
 10  5  1  0
 30 14  2  0
 13  8  1  0
 29 17  1  0
 28 22  1  0
  1 34  1  0
  1 35  1  0
  1 36  1  0
  3 37  1  0
  3 38  1  0
  6 39  1  0
  7 40  1  0
 10 41  1  0
 12 42  1  0
 15 43  1  0
 16 44  1  0
 18 45  1  0
 19 46  1  0
 20 47  1  0
 23 48  1  0
 23 49  1  0
 24 50  1  0
 24 51  1  0
 25 52  1  0
 26 53  1  0
 26 54  1  0
 27 55  1  0
 27 56  1  0
 28 57  1  0
 28 58  1  0
 31 59  1  0
 31 60  1  0
 33 61  1  0
 33 62  1  0
M  END
>  <meeko>  (4) 
{"is_sidechain": false}

>  <vina_affinity_kcal_mol>  (4) 
-9.327

>  <pose_rank>  (4) 
4

$$$$

     RDKit          3D

 62 67  0  0  0  0  0  0  0  0999 V2000
   -1.8840   -5.8550  -15.3970 C   0  0  0  0  0  0  0  0  0  0  0  0
   -2.5870   -5.2240  -16.6000 C   0  0  0  0  0  0  0  0  0  0  0  0
   -3.6850   -4.2580  -16.1620 C   0  0  0  0  0  0  0  0  0  0  0  0
   -3.4130   -2.9500  -16.6700 O   0  0  0  0  0  0  0  0  0  0  0  0
   -4.4160   -2.0230  -16.5820 C   0  0  0  0  0  0  0  0  0  0  0  0
   -4.2030   -0.8670  -17.3340 C   0  0  0  0  0  0  0  0  0  0  0  0
   -5.1270    0.1860  -17.3560 C   0  0  0  0  0  0  0  0  0  0  0  0
   -6.2850    0.0590  -16.5720 C   0  0  0  0  0  0  0  0  0  0  0  0
   -6.5330   -1.1150  -15.8510 C   0  0  0  0  0  0  0  0  0  0  0  0
   -5.5900   -2.1580  -15.8400 C   0  0  0  0  0  0  0  0  0  0  0  0
   -7.7550   -1.0820  -15.2390 N   0  0  0  0  0  0  0  0  0  0  0  0
   -8.2650    0.0790  -15.5730 C   0  0  0  0  0  0  0  0  0  0  0  0
   -7.4020    0.8530  -16.3240 N   0  0  0  0  0  0  0  0  0  0  0  0
   -7.7020    2.1950  -16.7030 C   0  0  0  0  0  0  0  0  0  0  0  0
   -6.8760    2.9170  -17.5440 C   0  0  0  0  0  0  0  0  0  0  0  0
   -7.2320    4.2260  -17.8580 C   0  0  0  0  0  0  0  0  0  0  0  0
   -8.3940    4.7920  -17.3230 C   0  0  0  0  0  0  0  0  0  0  0  0
   -8.7480    6.1150  -17.6340 C   0  0  0  0  0  0  0  0  0  0  0  0
   -9.8930    6.6860  -17.0910 C   0  0  0  0  0  0  0  0  0  0  0  0
  -10.6890    5.9330  -16.2370 C   0  0  0  0  0  0  0  0  0  0  0  0
  -10.3590    4.6020  -15.9180 C   0  0  0  0  0  0  0  0  0  0  0  0
  -11.2630    3.9430  -15.0360 N   0  0  0  0  0  0  0  0  0  0  0  0
  -12.5560    4.6510  -14.9560 C   0  0  0  0  0  0  0  0  0  0  0  0
  -13.3910    4.1430  -13.7720 C   0  0  0  0  0  0  0  0  0  0  0  0
  -13.0410    2.6940  -13.4390 C   0  0  0  0  0  0  0  0  0  0  0  0
  -13.8940    2.1790  -12.3620 N   0  0  0  0  0  0  0  0  0  0  0  0
  -11.5600    2.5570  -13.0520 C   0  0  0  0  0  0  0  0  0  0  0  0
  -10.6830    3.6170  -13.7290 C   0  0  0  0  0  0  0  0  0  0  0  0
   -9.1890    4.0100  -16.4590 C   0  0  0  0  0  0  0  0  0  0  0  0
   -8.8210    2.7400  -16.1570 N   0  0  0  0  0  0  0  0  0  0  0  0
   -1.6030   -4.7120  -17.6700 C   0  0  0  0  0  0  0  0  0  0  0  0
   -1.7680   -5.9330  -18.4410 O   0  0  0  0  0  0  0  0  0  0  0  0
   -2.9660   -6.2550  -17.6830 C   0  0  0  0  0  0  0  0  0  0  0  0
   -2.3225   -5.4614  -14.4681 H   0  0  0  0  0  0  0  0  0  0  0  0
   -2.0119   -6.9471  -15.4289 H   0  0  0  0  0  0  0  0  0  0  0  0
   -0.8120   -5.6103  -15.4289 H   0  0  0  0  0  0  0  0  0  0  0  0
   -4.6534   -4.6061  -16.5505 H   0  0  0  0  0  0  0  0  0  0  0  0
   -3.7172   -4.2204  -15.0631 H   0  0  0  0  0  0  0  0  0  0  0  0
   -3.2812   -0.7798  -17.9279 H   0  0  0  0  0  0  0  0  0  0  0  0
   -4.9510    1.0832  -17.9676 H   0  0  0  0  0  0  0  0  0  0  0  0
   -5.7756   -3.0698  -15.2533 H   0  0  0  0  0  0  0  0  0  0  0  0
   -9.2759    0.4031  -15.2848 H   0  0  0  0  0  0  0  0  0  0  0  0
   -5.9597    2.4683  -17.9552 H   0  0  0  0  0  0  0  0  0  0  0  0
   -6.5953    4.8189  -18.5312 H   0  0  0  0  0  0  0  0  0  0  0  0
   -8.1139    6.7042  -18.3129 H   0  0  0  0  0  0  0  0  0  0  0  0
  -10.1660    7.7233  -17.3349 H   0  0  0  0  0  0  0  0  0  0  0  0
  -11.5930    6.3846  -15.8024 H   0  0  0  0  0  0  0  0  0  0  0  0
  -12.3690    5.7275  -14.8284 H   0  0  0  0  0  0  0  0  0  0  0  0
  -13.1154    4.4636  -15.8844 H   0  0  0  0  0  0  0  0  0  0  0  0
  -13.1899    4.7731  -12.8930 H   0  0  0  0  0  0  0  0  0  0  0  0
  -14.4552    4.1931  -14.0458 H   0  0  0  0  0  0  0  0  0  0  0  0
  -13.2214    2.0948  -14.3437 H   0  0  0  0  0  0  0  0  0  0  0  0
  -14.5290    2.9130  -12.0500 H   0  0  0  0  0  0  0  0  0  0  0  0
  -14.4820    1.4300  -12.7260 H   0  0  0  0  0  0  0  0  0  0  0  0
  -11.4676    2.6651  -11.9612 H   0  0  0  0  0  0  0  0  0  0  0  0
  -11.2138    1.5683  -13.3876 H   0  0  0  0  0  0  0  0  0  0  0  0
  -10.6469    4.5216  -13.1041 H   0  0  0  0  0  0  0  0  0  0  0  0
   -9.6612    3.2308  -13.8585 H   0  0  0  0  0  0  0  0  0  0  0  0
   -1.9446   -3.8061  -18.1921 H   0  0  0  0  0  0  0  0  0  0  0  0
   -0.5960   -4.3815  -17.3754 H   0  0  0  0  0  0  0  0  0  0  0  0
   -3.9029   -6.0230  -18.2106 H   0  0  0  0  0  0  0  0  0  0  0  0
   -3.1725   -7.2977  -17.3998 H   0  0  0  0  0  0  0  0  0  0  0  0
  1  2  1  0
  2  3  1  0
  3  4  1  0
  4  5  1  0
  5  6  2  0
  6  7  1  0
  7  8  2  0
  8  9  1  0
  9 10  2  0
  9 11  1  0
 11 12  2  0
 12 13  1  0
 13 14  1  0
 14 15  1  0
 15 16  2  0
 16 17  1  0
 17 18  2  0
 18 19  1  0
 19 20  2  0
 20 21  1  0
 21 22  1  0
 22 23  1  0
 23 24  1  0
 24 25  1  0
 25 26  1  0
 25 27  1  0
 27 28  1  0
 21 29  2  0
 29 30  1  0
  2 31  1  0
 31 32  1  0
 32 33  1  0
 33  2  1  0
 10  5  1  0
 30 14  2  0
 13  8  1  0
 29 17  1  0
 28 22  1  0
  1 34  1  0
  1 35  1  0
  1 36  1  0
  3 37  1  0
  3 38  1  0
  6 39  1  0
  7 40  1  0
 10 41  1  0
 12 42  1  0
 15 43  1  0
 16 44  1  0
 18 45  1  0
 19 46  1  0
 20 47  1  0
 23 48  1  0
 23 49  1  0
 24 50  1  0
 24 51  1  0
 25 52  1  0
 26 53  1  0
 26 54  1  0
 27 55  1  0
 27 56  1  0
 28 57  1  0
 28 58  1  0
 31 59  1  0
 31 60  1  0
 33 61  1  0
 33 62  1  0
M  END
>  <meeko>  (5) 
{"is_sidechain": false}

>  <vina_affinity_kcal_mol>  (5) 
-9.319

>  <pose_rank>  (5) 
5

$$$$

     RDKit          3D

 62 67  0  0  0  0  0  0  0  0999 V2000
   -8.3650    5.9890  -19.2100 C   0  0  0  0  0  0  0  0  0  0  0  0
   -9.7280    6.6740  -19.3300 C   0  0  0  0  0  0  0  0  0  0  0  0
  -10.7930    5.9480  -18.5110 C   0  0  0  0  0  0  0  0  0  0  0  0
  -10.7920    6.4400  -17.1700 O   0  0  0  0  0  0  0  0  0  0  0  0
  -11.2680    5.6030  -16.1960 C   0  0  0  0  0  0  0  0  0  0  0  0
  -10.3090    4.7540  -15.6440 C   0  0  0  0  0  0  0  0  0  0  0  0
  -10.6250    3.8310  -14.6380 C   0  0  0  0  0  0  0  0  0  0  0  0
  -11.9580    3.7650  -14.2040 C   0  0  0  0  0  0  0  0  0  0  0  0
  -12.9190    4.6440  -14.7150 C   0  0  0  0  0  0  0  0  0  0  0  0
  -12.5810    5.5590  -15.7280 C   0  0  0  0  0  0  0  0  0  0  0  0
  -14.1260    4.4890  -14.0940 N   0  0  0  0  0  0  0  0  0  0  0  0
  -13.9270    3.5410  -13.2090 C   0  0  0  0  0  0  0  0  0  0  0  0
  -12.6550    3.0070  -13.2650 N   0  0  0  0  0  0  0  0  0  0  0  0
  -12.2510    1.8920  -12.4730 C   0  0  0  0  0  0  0  0  0  0  0  0
  -12.9830    1.4720  -11.3780 C   0  0  0  0  0  0  0  0  0  0  0  0
  -12.5170    0.3810  -10.6490 C   0  0  0  0  0  0  0  0  0  0  0  0
  -11.3310   -0.2630  -11.0170 C   0  0  0  0  0  0  0  0  0  0  0  0
  -10.8580   -1.3580  -10.2760 C   0  0  0  0  0  0  0  0  0  0  0  0
   -9.6710   -1.9890  -10.6300 C   0  0  0  0  0  0  0  0  0  0  0  0
   -8.9560   -1.5290  -11.7280 C   0  0  0  0  0  0  0  0  0  0  0  0
   -9.4160   -0.4390  -12.4910 C   0  0  0  0  0  0  0  0  0  0  0  0
   -8.5900   -0.0720  -13.5930 N   0  0  0  0  0  0  0  0  0  0  0  0
   -7.7580    1.1050  -13.2790 C   0  0  0  0  0  0  0  0  0  0  0  0
   -7.1320    1.6950  -14.5500 C   0  0  0  0  0  0  0  0  0  0  0  0
   -6.9490    0.6180  -15.6180 C   0  0  0  0  0  0  0  0  0  0  0  0
   -6.2770    1.1600  -16.8040 N   0  0  0  0  0  0  0  0  0  0  0  0
   -8.2980   -0.0050  -16.0130 C   0  0  0  0  0  0  0  0  0  0  0  0
   -9.3140    0.0340  -14.8640 C   0  0  0  0  0  0  0  0  0  0  0  0
  -10.6210    0.2210  -12.1360 C   0  0  0  0  0  0  0  0  0  0  0  0
  -11.0850    1.2900  -12.8290 N   0  0  0  0  0  0  0  0  0  0  0  0
   -9.6470    8.2040  -19.1580 C   0  0  0  0  0  0  0  0  0  0  0  0
   -9.6280    8.3890  -20.6000 O   0  0  0  0  0  0  0  0  0  0  0  0
  -10.0960    7.0260  -20.7870 C   0  0  0  0  0  0  0  0  0  0  0  0
   -8.1111    5.8614  -18.1473 H   0  0  0  0  0  0  0  0  0  0  0  0
   -8.4054    5.0041  -19.6982 H   0  0  0  0  0  0  0  0  0  0  0  0
   -7.5987    6.6091  -19.6982 H   0  0  0  0  0  0  0  0  0  0  0  0
  -11.7812    6.1205  -18.9624 H   0  0  0  0  0  0  0  0  0  0  0  0
  -10.5721    4.8704  -18.5023 H   0  0  0  0  0  0  0  0  0  0  0  0
   -9.2730    4.8106  -16.0094 H   0  0  0  0  0  0  0  0  0  0  0  0
   -9.8532    3.1793  -14.2026 H   0  0  0  0  0  0  0  0  0  0  0  0
  -13.3436    6.2323  -16.1465 H   0  0  0  0  0  0  0  0  0  0  0  0
  -14.6946    3.2061  -12.4958 H   0  0  0  0  0  0  0  0  0  0  0  0
  -13.9111    1.9872  -11.0896 H   0  0  0  0  0  0  0  0  0  0  0  0
  -13.0853    0.0231   -9.7778 H   0  0  0  0  0  0  0  0  0  0  0  0
  -11.4309   -1.7191   -9.4091 H   0  0  0  0  0  0  0  0  0  0  0  0
   -9.3015   -2.8447  -10.0458 H   0  0  0  0  0  0  0  0  0  0  0  0
   -8.0143   -2.0247  -12.0063 H   0  0  0  0  0  0  0  0  0  0  0  0
   -8.3854    1.8705  -12.7990 H   0  0  0  0  0  0  0  0  0  0  0  0
   -6.9479    0.7900  -12.6048 H   0  0  0  0  0  0  0  0  0  0  0  0
   -7.7903    2.4838  -14.9430 H   0  0  0  0  0  0  0  0  0  0  0  0
   -6.1452    2.1094  -14.2960 H   0  0  0  0  0  0  0  0  0  0  0  0
   -6.3142   -0.1700  -15.1866 H   0  0  0  0  0  0  0  0  0  0  0  0
   -6.9570    1.6420  -17.3910 H   0  0  0  0  0  0  0  0  0  0  0  0
   -5.5990    1.8640  -16.5150 H   0  0  0  0  0  0  0  0  0  0  0  0
   -8.7086    0.5523  -16.8678 H   0  0  0  0  0  0  0  0  0  0  0  0
   -8.1201   -1.0596  -16.2703 H   0  0  0  0  0  0  0  0  0  0  0  0
   -9.8714    0.9818  -14.8947 H   0  0  0  0  0  0  0  0  0  0  0  0
  -10.0234   -0.8009  -14.9622 H   0  0  0  0  0  0  0  0  0  0  0  0
  -10.5260    8.6438  -18.6641 H   0  0  0  0  0  0  0  0  0  0  0  0
   -8.8525    8.6449  -18.5380 H   0  0  0  0  0  0  0  0  0  0  0  0
  -11.1714    6.9502  -21.0057 H   0  0  0  0  0  0  0  0  0  0  0  0
   -9.7009    6.4188  -21.6148 H   0  0  0  0  0  0  0  0  0  0  0  0
  1  2  1  0
  2  3  1  0
  3  4  1  0
  4  5  1  0
  5  6  2  0
  6  7  1  0
  7  8  2  0
  8  9  1  0
  9 10  2  0
  9 11  1  0
 11 12  2  0
 12 13  1  0
 13 14  1  0
 14 15  1  0
 15 16  2  0
 16 17  1  0
 17 18  2  0
 18 19  1  0
 19 20  2  0
 20 21  1  0
 21 22  1  0
 22 23  1  0
 23 24  1  0
 24 25  1  0
 25 26  1  0
 25 27  1  0
 27 28  1  0
 21 29  2  0
 29 30  1  0
  2 31  1  0
 31 32  1  0
 32 33  1  0
 33  2  1  0
 10  5  1  0
 30 14  2  0
 13  8  1  0
 29 17  1  0
 28 22  1  0
  1 34  1  0
  1 35  1  0
  1 36  1  0
  3 37  1  0
  3 38  1  0
  6 39  1  0
  7 40  1  0
 10 41  1  0
 12 42  1  0
 15 43  1  0
 16 44  1  0
 18 45  1  0
 19 46  1  0
 20 47  1  0
 23 48  1  0
 23 49  1  0
 24 50  1  0
 24 51  1  0
 25 52  1  0
 26 53  1  0
 26 54  1  0
 27 55  1  0
 27 56  1  0
 28 57  1  0
 28 58  1  0
 31 59  1  0
 31 60  1  0
 33 61  1  0
 33 62  1  0
M  END
>  <meeko>  (6) 
{"is_sidechain": false}

>  <vina_affinity_kcal_mol>  (6) 
-9.267

>  <pose_rank>  (6) 
6

$$$$

     RDKit          3D

 62 67  0  0  0  0  0  0  0  0999 V2000
  -16.6270   -2.4300   -7.5230 C   0  0  0  0  0  0  0  0  0  0  0  0
  -15.3980   -1.5360   -7.6980 C   0  0  0  0  0  0  0  0  0  0  0  0
  -14.5470   -1.9830   -8.8850 C   0  0  0  0  0  0  0  0  0  0  0  0
  -13.1910   -1.5760   -8.6910 O   0  0  0  0  0  0  0  0  0  0  0  0
  -12.5670   -0.9550   -9.7400 C   0  0  0  0  0  0  0  0  0  0  0  0
  -12.9790    0.3590   -9.9620 C   0  0  0  0  0  0  0  0  0  0  0  0
  -12.4460    1.1400  -10.9960 C   0  0  0  0  0  0  0  0  0  0  0  0
  -11.4850    0.5520  -11.8330 C   0  0  0  0  0  0  0  0  0  0  0  0
  -11.0280   -0.7480  -11.5920 C   0  0  0  0  0  0  0  0  0  0  0  0
  -11.5800   -1.5150  -10.5500 C   0  0  0  0  0  0  0  0  0  0  0  0
  -10.0240   -1.0980  -12.4500 N   0  0  0  0  0  0  0  0  0  0  0  0
   -9.8480   -0.0410  -13.2070 C   0  0  0  0  0  0  0  0  0  0  0  0
  -10.7450    0.9740  -12.9360 N   0  0  0  0  0  0  0  0  0  0  0  0
  -10.8130    2.1700  -13.7100 C   0  0  0  0  0  0  0  0  0  0  0  0
  -11.8580    3.0640  -13.5800 C   0  0  0  0  0  0  0  0  0  0  0  0
  -11.8580    4.2040  -14.3790 C   0  0  0  0  0  0  0  0  0  0  0  0
  -10.8250    4.4260  -15.2960 C   0  0  0  0  0  0  0  0  0  0  0  0
  -10.8300    5.5730  -16.1080 C   0  0  0  0  0  0  0  0  0  0  0  0
   -9.8140    5.7870  -17.0320 C   0  0  0  0  0  0  0  0  0  0  0  0
   -8.7880    4.8570  -17.1430 C   0  0  0  0  0  0  0  0  0  0  0  0
   -8.7570    3.7060  -16.3340 C   0  0  0  0  0  0  0  0  0  0  0  0
   -7.6480    2.8380  -16.5470 N   0  0  0  0  0  0  0  0  0  0  0  0
   -6.5490    3.1210  -15.6030 C   0  0  0  0  0  0  0  0  0  0  0  0
   -5.2510    2.4300  -16.0420 C   0  0  0  0  0  0  0  0  0  0  0  0
   -5.5510    1.1710  -16.8540 C   0  0  0  0  0  0  0  0  0  0  0  0
   -4.3140    0.4640  -17.2070 N   0  0  0  0  0  0  0  0  0  0  0  0
   -6.3480    1.5080  -18.1240 C   0  0  0  0  0  0  0  0  0  0  0  0
   -7.2200    2.7570  -17.9480 C   0  0  0  0  0  0  0  0  0  0  0  0
   -9.7930    3.4690  -15.3940 C   0  0  0  0  0  0  0  0  0  0  0  0
   -9.8150    2.3600  -14.6130 N   0  0  0  0  0  0  0  0  0  0  0  0
  -15.7320   -0.0330   -7.6140 C   0  0  0  0  0  0  0  0  0  0  0  0
  -15.3340    0.0010   -6.2160 O   0  0  0  0  0  0  0  0  0  0  0  0
  -14.6520   -1.2720   -6.3730 C   0  0  0  0  0  0  0  0  0  0  0  0
  -16.8256   -2.5745   -6.4508 H   0  0  0  0  0  0  0  0  0  0  0  0
  -17.4979   -1.9529   -7.9962 H   0  0  0  0  0  0  0  0  0  0  0  0
  -16.4412   -3.4055   -7.9962 H   0  0  0  0  0  0  0  0  0  0  0  0
  -14.5901   -3.0786   -8.9728 H   0  0  0  0  0  0  0  0  0  0  0  0
  -14.9361   -1.5211   -9.8044 H   0  0  0  0  0  0  0  0  0  0  0  0
  -13.7459    0.7955   -9.3052 H   0  0  0  0  0  0  0  0  0  0  0  0
  -12.7702    2.1802  -11.1469 H   0  0  0  0  0  0  0  0  0  0  0  0
  -11.2367   -2.5455  -10.3761 H   0  0  0  0  0  0  0  0  0  0  0  0
   -9.0667    0.0297  -13.9780 H   0  0  0  0  0  0  0  0  0  0  0  0
  -12.6708    2.8795  -12.8622 H   0  0  0  0  0  0  0  0  0  0  0  0
  -12.6752    4.9347  -14.2888 H   0  0  0  0  0  0  0  0  0  0  0  0
  -11.6439    6.3067  -16.0116 H   0  0  0  0  0  0  0  0  0  0  0  0
   -9.8222    6.6838  -17.6690 H   0  0  0  0  0  0  0  0  0  0  0  0
   -7.9853    5.0233  -17.8765 H   0  0  0  0  0  0  0  0  0  0  0  0
   -6.3814    4.2074  -15.5622 H   0  0  0  0  0  0  0  0  0  0  0  0
   -6.8318    2.7356  -14.6123 H   0  0  0  0  0  0  0  0  0  0  0  0
   -4.6639    3.1255  -16.6597 H   0  0  0  0  0  0  0  0  0  0  0  0
   -4.6850    2.1422  -15.1438 H   0  0  0  0  0  0  0  0  0  0  0  0
   -6.1637    0.5098  -16.2236 H   0  0  0  0  0  0  0  0  0  0  0  0
   -3.7330    0.3580  -16.3760 H   0  0  0  0  0  0  0  0  0  0  0  0
   -4.5420   -0.4800  -17.5170 H   0  0  0  0  0  0  0  0  0  0  0  0
   -5.6419    1.6827  -18.9491 H   0  0  0  0  0  0  0  0  0  0  0  0
   -7.0141    0.6594  -18.3390 H   0  0  0  0  0  0  0  0  0  0  0  0
   -6.6394    3.6538  -18.2102 H   0  0  0  0  0  0  0  0  0  0  0  0
   -8.0996    2.6959  -18.6058 H   0  0  0  0  0  0  0  0  0  0  0  0
  -15.1132    0.5981   -8.2688 H   0  0  0  0  0  0  0  0  0  0  0  0
  -16.7294    0.3247   -7.9093 H   0  0  0  0  0  0  0  0  0  0  0  0
  -13.5615   -1.1823   -6.4859 H   0  0  0  0  0  0  0  0  0  0  0  0
  -14.6885   -2.0174   -5.5648 H   0  0  0  0  0  0  0  0  0  0  0  0
  1  2  1  0
  2  3  1  0
  3  4  1  0
  4  5  1  0
  5  6  2  0
  6  7  1  0
  7  8  2  0
  8  9  1  0
  9 10  2  0
  9 11  1  0
 11 12  2  0
 12 13  1  0
 13 14  1  0
 14 15  1  0
 15 16  2  0
 16 17  1  0
 17 18  2  0
 18 19  1  0
 19 20  2  0
 20 21  1  0
 21 22  1  0
 22 23  1  0
 23 24  1  0
 24 25  1  0
 25 26  1  0
 25 27  1  0
 27 28  1  0
 21 29  2  0
 29 30  1  0
  2 31  1  0
 31 32  1  0
 32 33  1  0
 33  2  1  0
 10  5  1  0
 30 14  2  0
 13  8  1  0
 29 17  1  0
 28 22  1  0
  1 34  1  0
  1 35  1  0
  1 36  1  0
  3 37  1  0
  3 38  1  0
  6 39  1  0
  7 40  1  0
 10 41  1  0
 12 42  1  0
 15 43  1  0
 16 44  1  0
 18 45  1  0
 19 46  1  0
 20 47  1  0
 23 48  1  0
 23 49  1  0
 24 50  1  0
 24 51  1  0
 25 52  1  0
 26 53  1  0
 26 54  1  0
 27 55  1  0
 27 56  1  0
 28 57  1  0
 28 58  1  0
 31 59  1  0
 31 60  1  0
 33 61  1  0
 33 62  1  0
M  END
>  <meeko>  (7) 
{"is_sidechain": false}

>  <vina_affinity_kcal_mol>  (7) 
-9.126

>  <pose_rank>  (7) 
7

$$$$

     RDKit          3D

 62 67  0  0  0  0  0  0  0  0999 V2000
   -9.5090    8.6180  -18.4510 C   0  0  0  0  0  0  0  0  0  0  0  0
   -9.4600    7.0890  -18.4880 C   0  0  0  0  0  0  0  0  0  0  0  0
   -9.2590    6.5030  -17.0920 C   0  0  0  0  0  0  0  0  0  0  0  0
   -8.8310    5.1440  -17.1930 O   0  0  0  0  0  0  0  0  0  0  0  0
   -9.3480    4.2550  -16.2890 C   0  0  0  0  0  0  0  0  0  0  0  0
  -10.5160    4.6850  -15.6590 C   0  0  0  0  0  0  0  0  0  0  0  0
  -11.1760    3.9010  -14.7030 C   0  0  0  0  0  0  0  0  0  0  0  0
  -10.6130    2.6580  -14.3720 C   0  0  0  0  0  0  0  0  0  0  0  0
   -9.4700    2.1950  -15.0310 C   0  0  0  0  0  0  0  0  0  0  0  0
   -8.8210    3.0000  -15.9850 C   0  0  0  0  0  0  0  0  0  0  0  0
   -9.1420    0.9270  -14.6420 N   0  0  0  0  0  0  0  0  0  0  0  0
  -10.0610    0.5990  -13.7650 C   0  0  0  0  0  0  0  0  0  0  0  0
  -10.9460    1.6240  -13.5000 N   0  0  0  0  0  0  0  0  0  0  0  0
  -11.9580    1.5300  -12.4990 C   0  0  0  0  0  0  0  0  0  0  0  0
  -13.0800    2.3370  -12.5180 C   0  0  0  0  0  0  0  0  0  0  0  0
  -14.0170    2.1920  -11.4990 C   0  0  0  0  0  0  0  0  0  0  0  0
  -13.8150    1.2560  -10.4780 C   0  0  0  0  0  0  0  0  0  0  0  0
  -14.7570    1.1160   -9.4460 C   0  0  0  0  0  0  0  0  0  0  0  0
  -14.5510    0.2000   -8.4230 C   0  0  0  0  0  0  0  0  0  0  0  0
  -13.4040   -0.5840   -8.4310 C   0  0  0  0  0  0  0  0  0  0  0  0
  -12.4510   -0.4680   -9.4600 C   0  0  0  0  0  0  0  0  0  0  0  0
  -11.3240   -1.3330   -9.3500 N   0  0  0  0  0  0  0  0  0  0  0  0
  -11.6560   -2.7100   -9.7640 C   0  0  0  0  0  0  0  0  0  0  0  0
  -10.5600   -3.6960   -9.3330 C   0  0  0  0  0  0  0  0  0  0  0  0
   -9.2050   -2.9960   -9.2360 C   0  0  0  0  0  0  0  0  0  0  0  0
   -8.1410   -3.9520   -8.9050 N   0  0  0  0  0  0  0  0  0  0  0  0
   -9.2400   -1.8620   -8.2000 C   0  0  0  0  0  0  0  0  0  0  0  0
  -10.6390   -1.2510   -8.0560 C   0  0  0  0  0  0  0  0  0  0  0  0
  -12.6440    0.4710  -10.5060 C   0  0  0  0  0  0  0  0  0  0  0  0
  -11.7370    0.6330  -11.5020 N   0  0  0  0  0  0  0  0  0  0  0  0
  -10.5880    6.4740  -19.3400 C   0  0  0  0  0  0  0  0  0  0  0  0
   -9.6920    6.3500  -20.4780 O   0  0  0  0  0  0  0  0  0  0  0  0
   -8.5470    6.5440  -19.6050 C   0  0  0  0  0  0  0  0  0  0  0  0
   -9.5199    8.9593  -17.4053 H   0  0  0  0  0  0  0  0  0  0  0  0
   -8.6235    9.0257  -18.9605 H   0  0  0  0  0  0  0  0  0  0  0  0
  -10.4188    8.9681  -18.9605 H   0  0  0  0  0  0  0  0  0  0  0  0
   -8.4955    7.0872  -16.5575 H   0  0  0  0  0  0  0  0  0  0  0  0
  -10.2105    6.5434  -16.5415 H   0  0  0  0  0  0  0  0  0  0  0  0
  -10.9316    5.6693  -15.9205 H   0  0  0  0  0  0  0  0  0  0  0  0
  -12.1051    4.2482  -14.2273 H   0  0  0  0  0  0  0  0  0  0  0  0
   -7.9085    2.6437  -16.4853 H   0  0  0  0  0  0  0  0  0  0  0  0
  -10.1200   -0.3913  -13.2898 H   0  0  0  0  0  0  0  0  0  0  0  0
  -13.2288    3.0760  -13.3191 H   0  0  0  0  0  0  0  0  0  0  0  0
  -14.9222    2.8170  -11.4960 H   0  0  0  0  0  0  0  0  0  0  0  0
  -15.6651    1.7368   -9.4481 H   0  0  0  0  0  0  0  0  0  0  0  0
  -15.2889    0.0960   -7.6139 H   0  0  0  0  0  0  0  0  0  0  0  0
  -13.2380   -1.3076   -7.6193 H   0  0  0  0  0  0  0  0  0  0  0  0
  -12.6081   -3.0053   -9.2990 H   0  0  0  0  0  0  0  0  0  0  0  0
  -11.7373   -2.7353  -10.8607 H   0  0  0  0  0  0  0  0  0  0  0  0
  -10.8196   -4.1161   -8.3501 H   0  0  0  0  0  0  0  0  0  0  0  0
  -10.4900   -4.4951  -10.0857 H   0  0  0  0  0  0  0  0  0  0  0  0
   -8.9873   -2.5587  -10.2216 H   0  0  0  0  0  0  0  0  0  0  0  0
   -7.9740   -3.9390   -7.8990 H   0  0  0  0  0  0  0  0  0  0  0  0
   -8.4540   -4.8960   -9.1300 H   0  0  0  0  0  0  0  0  0  0  0  0
   -8.9268   -2.2634   -7.2249 H   0  0  0  0  0  0  0  0  0  0  0  0
   -8.5595   -1.0693   -8.5443 H   0  0  0  0  0  0  0  0  0  0  0  0
  -11.2101   -1.8085   -7.2990 H   0  0  0  0  0  0  0  0  0  0  0  0
  -10.5581   -0.2002   -7.7410 H   0  0  0  0  0  0  0  0  0  0  0  0
  -10.9600    5.5115  -18.9589 H   0  0  0  0  0  0  0  0  0  0  0  0
  -11.5446    7.0057  -19.4502 H   0  0  0  0  0  0  0  0  0  0  0  0
   -8.0261    5.6122  -19.3397 H   0  0  0  0  0  0  0  0  0  0  0  0
   -7.6882    7.1382  -19.9504 H   0  0  0  0  0  0  0  0  0  0  0  0
  1  2  1  0
  2  3  1  0
  3  4  1  0
  4  5  1  0
  5  6  2  0
  6  7  1  0
  7  8  2  0
  8  9  1  0
  9 10  2  0
  9 11  1  0
 11 12  2  0
 12 13  1  0
 13 14  1  0
 14 15  1  0
 15 16  2  0
 16 17  1  0
 17 18  2  0
 18 19  1  0
 19 20  2  0
 20 21  1  0
 21 22  1  0
 22 23  1  0
 23 24  1  0
 24 25  1  0
 25 26  1  0
 25 27  1  0
 27 28  1  0
 21 29  2  0
 29 30  1  0
  2 31  1  0
 31 32  1  0
 32 33  1  0
 33  2  1  0
 10  5  1  0
 30 14  2  0
 13  8  1  0
 29 17  1  0
 28 22  1  0
  1 34  1  0
  1 35  1  0
  1 36  1  0
  3 37  1  0
  3 38  1  0
  6 39  1  0
  7 40  1  0
 10 41  1  0
 12 42  1  0
 15 43  1  0
 16 44  1  0
 18 45  1  0
 19 46  1  0
 20 47  1  0
 23 48  1  0
 23 49  1  0
 24 50  1  0
 24 51  1  0
 25 52  1  0
 26 53  1  0
 26 54  1  0
 27 55  1  0
 27 56  1  0
 28 57  1  0
 28 58  1  0
 31 59  1  0
 31 60  1  0
 33 61  1  0
 33 62  1  0
M  END
>  <meeko>  (8) 
{"is_sidechain": false}

>  <vina_affinity_kcal_mol>  (8) 
-9.092

>  <pose_rank>  (8) 
8

$$$$

     RDKit          3D

 62 67  0  0  0  0  0  0  0  0999 V2000
   -3.5700   -5.8140  -16.9420 C   0  0  0  0  0  0  0  0  0  0  0  0
   -4.3520   -5.3970  -15.6960 C   0  0  0  0  0  0  0  0  0  0  0  0
   -4.0380   -3.9570  -15.2950 C   0  0  0  0  0  0  0  0  0  0  0  0
   -4.0440   -3.1190  -16.4530 O   0  0  0  0  0  0  0  0  0  0  0  0
   -4.8860   -2.0400  -16.4400 C   0  0  0  0  0  0  0  0  0  0  0  0
   -5.7440   -1.9890  -15.3410 C   0  0  0  0  0  0  0  0  0  0  0  0
   -6.6730   -0.9540  -15.1720 C   0  0  0  0  0  0  0  0  0  0  0  0
   -6.7370    0.0390  -16.1620 C   0  0  0  0  0  0  0  0  0  0  0  0
   -5.8490    0.0260  -17.2440 C   0  0  0  0  0  0  0  0  0  0  0  0
   -4.9270   -1.0250  -17.3960 C   0  0  0  0  0  0  0  0  0  0  0  0
   -6.0040    1.1280  -18.0370 N   0  0  0  0  0  0  0  0  0  0  0  0
   -6.9590    1.8200  -17.4640 C   0  0  0  0  0  0  0  0  0  0  0  0
   -7.4990    1.1880  -16.3610 N   0  0  0  0  0  0  0  0  0  0  0  0
   -8.6230    1.7040  -15.6510 C   0  0  0  0  0  0  0  0  0  0  0  0
   -9.1890    1.0230  -14.5890 C   0  0  0  0  0  0  0  0  0  0  0  0
  -10.2920    1.5870  -13.9540 C   0  0  0  0  0  0  0  0  0  0  0  0
  -10.8140    2.8090  -14.3920 C   0  0  0  0  0  0  0  0  0  0  0  0
  -11.9320    3.3740  -13.7550 C   0  0  0  0  0  0  0  0  0  0  0  0
  -12.4620    4.5790  -14.1980 C   0  0  0  0  0  0  0  0  0  0  0  0
  -11.8730    5.2260  -15.2770 C   0  0  0  0  0  0  0  0  0  0  0  0
  -10.7470    4.6840  -15.9250 C   0  0  0  0  0  0  0  0  0  0  0  0
  -10.2400    5.4510  -17.0140 N   0  0  0  0  0  0  0  0  0  0  0  0
   -9.6200    6.7070  -16.5490 C   0  0  0  0  0  0  0  0  0  0  0  0
   -9.3830    7.6720  -17.7190 C   0  0  0  0  0  0  0  0  0  0  0  0
   -9.1930    6.9060  -19.0280 C   0  0  0  0  0  0  0  0  0  0  0  0
   -8.8850    7.8200  -20.1340 N   0  0  0  0  0  0  0  0  0  0  0  0
  -10.4370    6.0680  -19.3640 C   0  0  0  0  0  0  0  0  0  0  0  0
  -11.2000    5.6320  -18.1080 C   0  0  0  0  0  0  0  0  0  0  0  0
  -10.2010    3.4490  -15.4890 C   0  0  0  0  0  0  0  0  0  0  0  0
   -9.1330    2.8800  -16.1010 N   0  0  0  0  0  0  0  0  0  0  0  0
   -5.8420   -5.7860  -15.7640 C   0  0  0  0  0  0  0  0  0  0  0  0
   -5.5890   -6.9860  -14.9840 O   0  0  0  0  0  0  0  0  0  0  0  0
   -4.3010   -6.4540  -14.5730 C   0  0  0  0  0  0  0  0  0  0  0  0
   -2.6368   -6.3117  -16.6397 H   0  0  0  0  0  0  0  0  0  0  0  0
   -4.1779   -6.5077  -17.5413 H   0  0  0  0  0  0  0  0  0  0  0  0
   -3.3327   -4.9227  -17.5413 H   0  0  0  0  0  0  0  0  0  0  0  0
   -4.7982   -3.6021  -14.5836 H   0  0  0  0  0  0  0  0  0  0  0  0
   -3.0441   -3.9196  -14.8251 H   0  0  0  0  0  0  0  0  0  0  0  0
   -5.6894   -2.7855  -14.5843 H   0  0  0  0  0  0  0  0  0  0  0  0
   -7.3314   -0.9206  -14.2914 H   0  0  0  0  0  0  0  0  0  0  0  0
   -4.2456   -1.0464  -18.2593 H   0  0  0  0  0  0  0  0  0  0  0  0
   -7.2956    2.8031  -17.8248 H   0  0  0  0  0  0  0  0  0  0  0  0
   -8.7778    0.0593  -14.2541 H   0  0  0  0  0  0  0  0  0  0  0  0
  -10.7563    1.0685  -13.1022 H   0  0  0  0  0  0  0  0  0  0  0  0
  -12.3910    2.8579  -12.8989 H   0  0  0  0  0  0  0  0  0  0  0  0
  -13.3394    5.0166  -13.6994 H   0  0  0  0  0  0  0  0  0  0  0  0
  -12.2939    6.1786  -15.6312 H   0  0  0  0  0  0  0  0  0  0  0  0
  -10.2859    7.1868  -15.8167 H   0  0  0  0  0  0  0  0  0  0  0  0
   -8.6490    6.4686  -16.0903 H   0  0  0  0  0  0  0  0  0  0  0  0
  -10.2510    8.3407  -17.8158 H   0  0  0  0  0  0  0  0  0  0  0  0
   -8.4712    8.2529  -17.5162 H   0  0  0  0  0  0  0  0  0  0  0  0
   -8.3406    6.2243  -18.8915 H   0  0  0  0  0  0  0  0  0  0  0  0
   -8.3820    7.3150  -20.8630 H   0  0  0  0  0  0  0  0  0  0  0  0
   -9.7540    8.1420  -20.5570 H   0  0  0  0  0  0  0  0  0  0  0  0
  -11.1084    6.6686  -19.9954 H   0  0  0  0  0  0  0  0  0  0  0  0
  -10.1008    5.1601  -19.8862 H   0  0  0  0  0  0  0  0  0  0  0  0
  -11.9330    6.4048  -17.8332 H   0  0  0  0  0  0  0  0  0  0  0  0
  -11.7311    4.6882  -18.3007 H   0  0  0  0  0  0  0  0  0  0  0  0
   -6.5129   -5.0673  -15.2706 H   0  0  0  0  0  0  0  0  0  0  0  0
   -6.3450   -5.8619  -16.7393 H   0  0  0  0  0  0  0  0  0  0  0  0
   -4.2982   -6.0272  -13.5592 H   0  0  0  0  0  0  0  0  0  0  0  0
   -3.4323   -7.1236  -14.4887 H   0  0  0  0  0  0  0  0  0  0  0  0
  1  2  1  0
  2  3  1  0
  3  4  1  0
  4  5  1  0
  5  6  2  0
  6  7  1  0
  7  8  2  0
  8  9  1  0
  9 10  2  0
  9 11  1  0
 11 12  2  0
 12 13  1  0
 13 14  1  0
 14 15  1  0
 15 16  2  0
 16 17  1  0
 17 18  2  0
 18 19  1  0
 19 20  2  0
 20 21  1  0
 21 22  1  0
 22 23  1  0
 23 24  1  0
 24 25  1  0
 25 26  1  0
 25 27  1  0
 27 28  1  0
 21 29  2  0
 29 30  1  0
  2 31  1  0
 31 32  1  0
 32 33  1  0
 33  2  1  0
 10  5  1  0
 30 14  2  0
 13  8  1  0
 29 17  1  0
 28 22  1  0
  1 34  1  0
  1 35  1  0
  1 36  1  0
  3 37  1  0
  3 38  1  0
  6 39  1  0
  7 40  1  0
 10 41  1  0
 12 42  1  0
 15 43  1  0
 16 44  1  0
 18 45  1  0
 19 46  1  0
 20 47  1  0
 23 48  1  0
 23 49  1  0
 24 50  1  0
 24 51  1  0
 25 52  1  0
 26 53  1  0
 26 54  1  0
 27 55  1  0
 27 56  1  0
 28 57  1  0
 28 58  1  0
 31 59  1  0
 31 60  1  0
 33 61  1  0
 33 62  1  0
M  END
>  <meeko>  (9) 
{"is_sidechain": false}

>  <vina_affinity_kcal_mol>  (9) 
-9.0

>  <pose_rank>  (9) 
9

$$$$

     RDKit          3D

 62 67  0  0  0  0  0  0  0  0999 V2000
   -8.4530    5.9020  -19.0940 C   0  0  0  0  0  0  0  0  0  0  0  0
   -9.7620    6.6840  -19.2110 C   0  0  0  0  0  0  0  0  0  0  0  0
  -10.9070    5.9690  -18.4960 C   0  0  0  0  0  0  0  0  0  0  0  0
  -10.9780    6.4040  -17.1370 O   0  0  0  0  0  0  0  0  0  0  0  0
  -11.1720    5.4440  -16.1810 C   0  0  0  0  0  0  0  0  0  0  0  0
  -10.0500    4.6600  -15.9130 C   0  0  0  0  0  0  0  0  0  0  0  0
  -10.0740    3.6280  -14.9650 C   0  0  0  0  0  0  0  0  0  0  0  0
  -11.2820    3.3830  -14.2920 C   0  0  0  0  0  0  0  0  0  0  0  0
  -12.4000    4.1930  -14.5170 C   0  0  0  0  0  0  0  0  0  0  0  0
  -12.3550    5.2210  -15.4760 C   0  0  0  0  0  0  0  0  0  0  0  0
  -13.4390    3.8590  -13.6950 N   0  0  0  0  0  0  0  0  0  0  0  0
  -12.9830    2.8680  -12.9660 C   0  0  0  0  0  0  0  0  0  0  0  0
  -11.7060    2.4800  -13.3200 N   0  0  0  0  0  0  0  0  0  0  0  0
  -11.0540    1.3530  -12.7390 C   0  0  0  0  0  0  0  0  0  0  0  0
  -11.6360    0.6180  -11.7230 C   0  0  0  0  0  0  0  0  0  0  0  0
  -10.9310   -0.4630  -11.2000 C   0  0  0  0  0  0  0  0  0  0  0  0
   -9.6600   -0.7840  -11.6900 C   0  0  0  0  0  0  0  0  0  0  0  0
   -8.9460   -1.8700  -11.1560 C   0  0  0  0  0  0  0  0  0  0  0  0
   -7.6780   -2.1800  -11.6280 C   0  0  0  0  0  0  0  0  0  0  0  0
   -7.1200   -1.4080  -12.6400 C   0  0  0  0  0  0  0  0  0  0  0  0
   -7.8200   -0.3220  -13.1960 C   0  0  0  0  0  0  0  0  0  0  0  0
   -7.1360    0.3820  -14.2290 N   0  0  0  0  0  0  0  0  0  0  0  0
   -7.1970   -0.3440  -15.5120 C   0  0  0  0  0  0  0  0  0  0  0  0
   -6.1940    0.2320  -16.5220 C   0  0  0  0  0  0  0  0  0  0  0  0
   -5.9230    1.7090  -16.2390 C   0  0  0  0  0  0  0  0  0  0  0  0
   -5.0280    2.2840  -17.2500 N   0  0  0  0  0  0  0  0  0  0  0  0
   -5.3290    1.9040  -14.8350 C   0  0  0  0  0  0  0  0  0  0  0  0
   -5.7850    0.8150  -13.8560 C   0  0  0  0  0  0  0  0  0  0  0  0
   -9.1130    0.0120  -12.7170 C   0  0  0  0  0  0  0  0  0  0  0  0
   -9.8110    1.0670  -13.2080 N   0  0  0  0  0  0  0  0  0  0  0  0
   -9.5920    8.1870  -18.9100 C   0  0  0  0  0  0  0  0  0  0  0  0
   -9.4970    8.4840  -20.3300 O   0  0  0  0  0  0  0  0  0  0  0  0
  -10.0430    7.1750  -20.6460 C   0  0  0  0  0  0  0  0  0  0  0  0
   -8.2073    5.7552  -18.0319 H   0  0  0  0  0  0  0  0  0  0  0  0
   -8.5657    4.9231  -19.5830 H   0  0  0  0  0  0  0  0  0  0  0  0
   -7.6445    6.4652  -19.5830 H   0  0  0  0  0  0  0  0  0  0  0  0
  -11.8552    6.2007  -19.0032 H   0  0  0  0  0  0  0  0  0  0  0  0
  -10.7281    4.8839  -18.5203 H   0  0  0  0  0  0  0  0  0  0  0  0
   -9.1178    4.8577  -16.4625 H   0  0  0  0  0  0  0  0  0  0  0  0
   -9.1755    3.0292  -14.7549 H   0  0  0  0  0  0  0  0  0  0  0  0
  -13.2424    5.8420  -15.6679 H   0  0  0  0  0  0  0  0  0  0  0  0
  -13.5585    2.3952  -12.1565 H   0  0  0  0  0  0  0  0  0  0  0  0
  -12.6320    0.8808  -11.3370 H   0  0  0  0  0  0  0  0  0  0  0  0
  -11.3759   -1.0685  -10.3966 H   0  0  0  0  0  0  0  0  0  0  0  0
   -9.3953   -2.4791  -10.3578 H   0  0  0  0  0  0  0  0  0  0  0  0
   -7.1202   -3.0285  -11.2051 H   0  0  0  0  0  0  0  0  0  0  0  0
   -6.1138   -1.6504  -13.0125 H   0  0  0  0  0  0  0  0  0  0  0  0
   -6.9613   -1.4040  -15.3364 H   0  0  0  0  0  0  0  0  0  0  0  0
   -8.2104   -0.2364  -15.9262 H   0  0  0  0  0  0  0  0  0  0  0  0
   -5.2496   -0.3276  -16.4509 H   0  0  0  0  0  0  0  0  0  0  0  0
   -6.6199    0.1399  -17.5320 H   0  0  0  0  0  0  0  0  0  0  0  0
   -6.8872    2.2363  -16.2854 H   0  0  0  0  0  0  0  0  0  0  0  0
   -4.9020    3.2790  -17.0670 H   0  0  0  0  0  0  0  0  0  0  0  0
   -4.1050    1.8590  -17.1640 H   0  0  0  0  0  0  0  0  0  0  0  0
   -4.2317    1.8777  -14.9079 H   0  0  0  0  0  0  0  0  0  0  0  0
   -5.6819    2.8724  -14.4508 H   0  0  0  0  0  0  0  0  0  0  0  0
   -5.0952   -0.0403  -13.9065 H   0  0  0  0  0  0  0  0  0  0  0  0
   -5.7888    1.2116  -12.8300 H   0  0  0  0  0  0  0  0  0  0  0  0
  -10.4625    8.6438  -18.4165 H   0  0  0  0  0  0  0  0  0  0  0  0
   -8.7998    8.5233  -18.2249 H   0  0  0  0  0  0  0  0  0  0  0  0
  -11.1106    7.1897  -20.9108 H   0  0  0  0  0  0  0  0  0  0  0  0
   -9.6521    6.6105  -21.5054 H   0  0  0  0  0  0  0  0  0  0  0  0
  1  2  1  0
  2  3  1  0
  3  4  1  0
  4  5  1  0
  5  6  2  0
  6  7  1  0
  7  8  2  0
  8  9  1  0
  9 10  2  0
  9 11  1  0
 11 12  2  0
 12 13  1  0
 13 14  1  0
 14 15  1  0
 15 16  2  0
 16 17  1  0
 17 18  2  0
 18 19  1  0
 19 20  2  0
 20 21  1  0
 21 22  1  0
 22 23  1  0
 23 24  1  0
 24 25  1  0
 25 26  1  0
 25 27  1  0
 27 28  1  0
 21 29  2  0
 29 30  1  0
  2 31  1  0
 31 32  1  0
 32 33  1  0
 33  2  1  0
 10  5  1  0
 30 14  2  0
 13  8  1  0
 29 17  1  0
 28 22  1  0
  1 34  1  0
  1 35  1  0
  1 36  1  0
  3 37  1  0
  3 38  1  0
  6 39  1  0
  7 40  1  0
 10 41  1  0
 12 42  1  0
 15 43  1  0
 16 44  1  0
 18 45  1  0
 19 46  1  0
 20 47  1  0
 23 48  1  0
 23 49  1  0
 24 50  1  0
 24 51  1  0
 25 52  1  0
 26 53  1  0
 26 54  1  0
 27 55  1  0
 27 56  1  0
 28 57  1  0
 28 58  1  0
 31 59  1  0
 31 60  1  0
 33 61  1  0
 33 62  1  0
M  END
>  <meeko>  (10) 
{"is_sidechain": false}

>  <vina_affinity_kcal_mol>  (10) 
-8.995

>  <pose_rank>  (10) 
10

$$$$
