
     RDKit          3D

 51 54  0  0  0  0  0  0  0  0999 V2000
  -38.2890  165.7780   -8.3140 C   0  0  0  0  0  0  0  0  0  0  0  0
  -37.4900  164.6980   -7.8500 O   0  0  0  0  0  0  0  0  0  0  0  0
  -37.8770  164.0710   -6.6910 C   0  0  0  0  0  0  0  0  0  0  0  0
  -37.9440  164.6930   -5.4390 C   0  0  0  0  0  0  0  0  0  0  0  0
  -38.3420  164.0100   -4.2980 C   0  0  0  0  0  0  0  0  0  0  0  0
  -38.3790  164.6740   -3.1290 N   0  0  0  0  0  0  0  0  0  0  0  0
  -38.7550  164.0040   -2.0180 C   0  0  0  0  0  0  0  0  0  0  0  0
  -39.1130  162.6740   -2.0110 C   0  0  0  0  0  0  0  0  0  0  0  0
  -39.0960  162.0010   -3.2290 C   0  0  0  0  0  0  0  0  0  0  0  0
  -39.4080  160.6580   -3.2810 O   0  0  0  0  0  0  0  0  0  0  0  0
  -39.3290  159.9430   -2.1060 C   0  0  0  0  0  0  0  0  0  0  0  0
  -38.2730  159.0870   -1.7940 C   0  0  0  0  0  0  0  0  0  0  0  0
  -38.2480  158.4180   -0.5630 C   0  0  0  0  0  0  0  0  0  0  0  0
  -39.2700  158.6060    0.3700 C   0  0  0  0  0  0  0  0  0  0  0  0
  -39.2990  157.9650    1.6330 N   0  0  0  0  0  0  0  0  0  0  0  0
  -38.2340  157.7230    2.4900 C   0  0  0  0  0  0  0  0  0  0  0  0
  -37.0670  157.9760    2.2280 O   0  0  0  0  0  0  0  0  0  0  0  0
  -38.6910  157.1640    3.6720 N   0  0  0  0  0  0  0  0  0  0  0  0
  -37.8790  156.7360    4.7050 C   0  0  0  0  0  0  0  0  0  0  0  0
  -37.7140  155.3700    5.0500 C   0  0  0  0  0  0  0  0  0  0  0  0
  -36.8350  155.3800    6.1040 C   0  0  0  0  0  0  0  0  0  0  0  0
  -36.2250  154.3410    6.9520 C   0  0  0  0  0  0  0  0  0  0  0  0
  -36.4870  156.6630    6.3760 O   0  0  0  0  0  0  0  0  0  0  0  0
  -37.1360  157.5100    5.5010 N   0  0  0  0  0  0  0  0  0  0  0  0
  -40.3120  159.4980    0.0500 C   0  0  0  0  0  0  0  0  0  0  0  0
  -41.5990  159.8000    1.1710 Cl  0  0  0  0  0  0  0  0  0  0  0  0
  -40.3420  160.1660   -1.1760 C   0  0  0  0  0  0  0  0  0  0  0  0
  -38.6890  162.6530   -4.4100 C   0  0  0  0  0  0  0  0  0  0  0  0
  -38.6230  162.0140   -5.6690 C   0  0  0  0  0  0  0  0  0  0  0  0
  -38.2200  162.7140   -6.8080 C   0  0  0  0  0  0  0  0  0  0  0  0
  -38.1310  162.1710   -8.0640 O   0  0  0  0  0  0  0  0  0  0  0  0
  -37.0590  161.2780   -8.3260 C   0  0  0  0  0  0  0  0  0  0  0  0
  -38.6965  166.3288   -7.4534 H   0  0  0  0  0  0  0  0  0  0  0  0
  -37.6724  166.4547   -8.9238 H   0  0  0  0  0  0  0  0  0  0  0  0
  -39.1165  165.3864   -8.9238 H   0  0  0  0  0  0  0  0  0  0  0  0
  -37.6729  165.7559   -5.3567 H   0  0  0  0  0  0  0  0  0  0  0  0
  -38.7765  164.5519   -1.0644 H   0  0  0  0  0  0  0  0  0  0  0  0
  -39.4009  162.1641   -1.0798 H   0  0  0  0  0  0  0  0  0  0  0  0
  -37.4573  158.9366   -2.5165 H   0  0  0  0  0  0  0  0  0  0  0  0
  -37.4154  157.7382   -0.3293 H   0  0  0  0  0  0  0  0  0  0  0  0
  -40.1730  157.5060    1.8500 H   0  0  0  0  0  0  0  0  0  0  0  0
  -39.6790  157.1690    3.8540 H   0  0  0  0  0  0  0  0  0  0  0  0
  -38.1861  154.4961    4.5774 H   0  0  0  0  0  0  0  0  0  0  0  0
  -36.3754  154.5972    8.0111 H   0  0  0  0  0  0  0  0  0  0  0  0
  -36.6966  153.3703    6.7390 H   0  0  0  0  0  0  0  0  0  0  0  0
  -35.1476  154.2798    6.7390 H   0  0  0  0  0  0  0  0  0  0  0  0
  -41.1605  160.8640   -1.4060 H   0  0  0  0  0  0  0  0  0  0  0  0
  -38.8928  160.9509   -5.7527 H   0  0  0  0  0  0  0  0  0  0  0  0
  -36.6351  160.9248   -7.3744 H   0  0  0  0  0  0  0  0  0  0  0  0
  -37.4305  160.4185   -8.9033 H   0  0  0  0  0  0  0  0  0  0  0  0
  -36.2808  161.7987   -8.9033 H   0  0  0  0  0  0  0  0  0  0  0  0
  1  2  1  0
  2  3  1  0
  3  4  1  0
  4  5  2  0
  5  6  1  0
  6  7  2  0
  7  8  1  0
  8  9  2  0
  9 10  1  0
 10 11  1  0
 11 12  1  0
 12 13  2  0
 13 14  1  0
 14 15  1  0
 15 16  1  0
 16 17  2  0
 16 18  1  0
 18 19  1  0
 19 20  1  0
 20 21  2  0
 21 22  1  0
 21 23  1  0
 23 24  1  0
 14 25  2  0
 25 26  1  0
 25 27  1  0
  9 28  1  0
 28 29  2  0
 29 30  1  0
 30 31  1  0
 31 32  1  0
 30  3  2  0
 28  5  1  0
 27 11  2  0
 24 19  2  0
  1 33  1  0
  1 34  1  0
  1 35  1  0
  4 36  1  0
  7 37  1  0
  8 38  1  0
 12 39  1  0
 13 40  1  0
 15 41  1  0
 18 42  1  0
 20 43  1  0
 22 44  1  0
 22 45  1  0
 22 46  1  0
 27 47  1  0
 29 48  1  0
 32 49  1  0
 32 50  1  0
 32 51  1  0
M  END
>  <meeko>  (1) 
{"is_sidechain": false}

>  <vina_affinity_kcal_mol>  (1) 
-10.549

>  <pose_rank>  (1) 
1

$$$$

     RDKit          3D

 51 54  0  0  0  0  0  0  0  0999 V2000
  -33.8550  152.2500    6.0860 C   0  0  0  0  0  0  0  0  0  0  0  0
  -35.1730  152.5450    6.5270 O   0  0  0  0  0  0  0  0  0  0  0  0
  -35.7510  153.7080    6.0770 C   0  0  0  0  0  0  0  0  0  0  0  0
  -35.2440  154.9890    6.3210 C   0  0  0  0  0  0  0  0  0  0  0  0
  -35.8690  156.1320    5.8420 C   0  0  0  0  0  0  0  0  0  0  0  0
  -35.3240  157.3300    6.1210 N   0  0  0  0  0  0  0  0  0  0  0  0
  -35.9420  158.4410    5.6620 C   0  0  0  0  0  0  0  0  0  0  0  0
  -37.1000  158.4200    4.9170 C   0  0  0  0  0  0  0  0  0  0  0  0
  -37.6430  157.1760    4.6130 C   0  0  0  0  0  0  0  0  0  0  0  0
  -38.8220  157.0910    3.9010 O   0  0  0  0  0  0  0  0  0  0  0  0
  -38.9190  157.8350    2.7450 C   0  0  0  0  0  0  0  0  0  0  0  0
  -37.8850  157.9520    1.8170 C   0  0  0  0  0  0  0  0  0  0  0  0
  -38.0690  158.7020    0.6480 C   0  0  0  0  0  0  0  0  0  0  0  0
  -39.2890  159.3320    0.3910 C   0  0  0  0  0  0  0  0  0  0  0  0
  -39.5400  160.0980   -0.7730 N   0  0  0  0  0  0  0  0  0  0  0  0
  -38.9650  161.3090   -1.1380 C   0  0  0  0  0  0  0  0  0  0  0  0
  -38.1850  161.9390   -0.4390 O   0  0  0  0  0  0  0  0  0  0  0  0
  -39.4000  161.6830   -2.3970 N   0  0  0  0  0  0  0  0  0  0  0  0
  -39.0740  162.8720   -3.0220 C   0  0  0  0  0  0  0  0  0  0  0  0
  -38.8490  162.9820   -4.4180 C   0  0  0  0  0  0  0  0  0  0  0  0
  -38.5680  164.3100   -4.6230 C   0  0  0  0  0  0  0  0  0  0  0  0
  -38.2380  165.1260   -5.8030 C   0  0  0  0  0  0  0  0  0  0  0  0
  -38.6230  164.9610   -3.4340 O   0  0  0  0  0  0  0  0  0  0  0  0
  -38.9430  164.0640   -2.4340 N   0  0  0  0  0  0  0  0  0  0  0  0
  -40.3320  159.1770    1.3260 C   0  0  0  0  0  0  0  0  0  0  0  0
  -41.8800  159.9080    1.0600 Cl  0  0  0  0  0  0  0  0  0  0  0  0
  -40.1520  158.4320    2.4930 C   0  0  0  0  0  0  0  0  0  0  0  0
  -37.0470  155.9910    5.0880 C   0  0  0  0  0  0  0  0  0  0  0  0
  -37.5680  154.7020    4.8370 C   0  0  0  0  0  0  0  0  0  0  0  0
  -36.9280  153.5610    5.3260 C   0  0  0  0  0  0  0  0  0  0  0  0
  -37.3660  152.2770    5.1260 O   0  0  0  0  0  0  0  0  0  0  0  0
  -38.4690  151.8250    5.8980 C   0  0  0  0  0  0  0  0  0  0  0  0
  -33.2007  152.1036    6.9581 H   0  0  0  0  0  0  0  0  0  0  0  0
  -33.8681  151.3326    5.4793 H   0  0  0  0  0  0  0  0  0  0  0  0
  -33.4758  153.0855    5.4793 H   0  0  0  0  0  0  0  0  0  0  0  0
  -34.3214  155.0935    6.9108 H   0  0  0  0  0  0  0  0  0  0  0  0
  -35.4943  159.4179    5.8970 H   0  0  0  0  0  0  0  0  0  0  0  0
  -37.5769  159.3506    4.5757 H   0  0  0  0  0  0  0  0  0  0  0  0
  -36.9220  157.4540    2.0032 H   0  0  0  0  0  0  0  0  0  0  0  0
  -37.2448  158.7957   -0.0744 H   0  0  0  0  0  0  0  0  0  0  0  0
  -40.3380  159.7910   -1.3140 H   0  0  0  0  0  0  0  0  0  0  0  0
  -39.8920  161.0070   -2.9560 H   0  0  0  0  0  0  0  0  0  0  0  0
  -38.8905  162.1804   -5.1702 H   0  0  0  0  0  0  0  0  0  0  0  0
  -37.8441  166.0999   -5.4768 H   0  0  0  0  0  0  0  0  0  0  0  0
  -37.4790  164.6072   -6.4070 H   0  0  0  0  0  0  0  0  0  0  0  0
  -39.1443  165.2807   -6.4070 H   0  0  0  0  0  0  0  0  0  0  0  0
  -40.9790  158.3172    3.2092 H   0  0  0  0  0  0  0  0  0  0  0  0
  -38.4909  154.5955    4.2480 H   0  0  0  0  0  0  0  0  0  0  0  0
  -38.2321  151.9221    6.9678 H   0  0  0  0  0  0  0  0  0  0  0  0
  -39.3552  152.4325    5.6621 H   0  0  0  0  0  0  0  0  0  0  0  0
  -38.6740  150.7703    5.6621 H   0  0  0  0  0  0  0  0  0  0  0  0
  1  2  1  0
  2  3  1  0
  3  4  1  0
  4  5  2  0
  5  6  1  0
  6  7  2  0
  7  8  1  0
  8  9  2  0
  9 10  1  0
 10 11  1  0
 11 12  1  0
 12 13  2  0
 13 14  1  0
 14 15  1  0
 15 16  1  0
 16 17  2  0
 16 18  1  0
 18 19  1  0
 19 20  1  0
 20 21  2  0
 21 22  1  0
 21 23  1  0
 23 24  1  0
 14 25  2  0
 25 26  1  0
 25 27  1  0
  9 28  1  0
 28 29  2  0
 29 30  1  0
 30 31  1  0
 31 32  1  0
 30  3  2  0
 28  5  1  0
 27 11  2  0
 24 19  2  0
  1 33  1  0
  1 34  1  0
  1 35  1  0
  4 36  1  0
  7 37  1  0
  8 38  1  0
 12 39  1  0
 13 40  1  0
 15 41  1  0
 18 42  1  0
 20 43  1  0
 22 44  1  0
 22 45  1  0
 22 46  1  0
 27 47  1  0
 29 48  1  0
 32 49  1  0
 32 50  1  0
 32 51  1  0
M  END
>  <meeko>  (2) 
{"is_sidechain": false}

>  <vina_affinity_kcal_mol>  (2) 
-9.805

>  <pose_rank>  (2) 
2

$$$$

     RDKit          3D

 51 54  0  0  0  0  0  0  0  0999 V2000
  -38.5590  157.4560  -12.1430 C   0  0  0  0  0  0  0  0  0  0  0  0
  -37.3400  158.1840  -12.0970 O   0  0  0  0  0  0  0  0  0  0  0  0
  -37.3160  159.3430  -11.3590 C   0  0  0  0  0  0  0  0  0  0  0  0
  -37.8760  160.5560  -11.7730 C   0  0  0  0  0  0  0  0  0  0  0  0
  -37.8230  161.6980  -10.9860 C   0  0  0  0  0  0  0  0  0  0  0  0
  -38.3810  162.8300  -11.4540 N   0  0  0  0  0  0  0  0  0  0  0  0
  -38.3170  163.9420  -10.6900 C   0  0  0  0  0  0  0  0  0  0  0  0
  -37.7170  163.9870   -9.4510 C   0  0  0  0  0  0  0  0  0  0  0  0
  -37.1640  162.8070   -8.9650 C   0  0  0  0  0  0  0  0  0  0  0  0
  -36.5160  162.7970   -7.7470 O   0  0  0  0  0  0  0  0  0  0  0  0
  -37.2780  162.5500   -6.6260 C   0  0  0  0  0  0  0  0  0  0  0  0
  -37.7240  161.2790   -6.2640 C   0  0  0  0  0  0  0  0  0  0  0  0
  -38.4700  161.1020   -5.0910 C   0  0  0  0  0  0  0  0  0  0  0  0
  -38.7680  162.1890   -4.2660 C   0  0  0  0  0  0  0  0  0  0  0  0
  -39.5110  162.0750   -3.0660 N   0  0  0  0  0  0  0  0  0  0  0  0
  -39.3130  161.1800   -2.0220 C   0  0  0  0  0  0  0  0  0  0  0  0
  -38.4810  160.2840   -2.0320 O   0  0  0  0  0  0  0  0  0  0  0  0
  -40.1850  161.4580   -0.9840 N   0  0  0  0  0  0  0  0  0  0  0  0
  -40.2980  160.7080    0.1720 C   0  0  0  0  0  0  0  0  0  0  0  0
  -41.4150  159.8820    0.4580 C   0  0  0  0  0  0  0  0  0  0  0  0
  -41.1280  159.3170    1.6750 C   0  0  0  0  0  0  0  0  0  0  0  0
  -41.8250  158.3760    2.5680 C   0  0  0  0  0  0  0  0  0  0  0  0
  -39.9180  159.7650    2.0960 O   0  0  0  0  0  0  0  0  0  0  0  0
  -39.3980  160.6310    1.1560 N   0  0  0  0  0  0  0  0  0  0  0  0
  -38.2820  163.4590   -4.6320 C   0  0  0  0  0  0  0  0  0  0  0  0
  -38.5900  164.8480   -3.6430 Cl  0  0  0  0  0  0  0  0  0  0  0  0
  -37.5400  163.6400   -5.8010 C   0  0  0  0  0  0  0  0  0  0  0  0
  -37.1870  161.6270   -9.7350 C   0  0  0  0  0  0  0  0  0  0  0  0
  -36.6160  160.4070   -9.3080 C   0  0  0  0  0  0  0  0  0  0  0  0
  -36.6770  159.2660  -10.1110 C   0  0  0  0  0  0  0  0  0  0  0  0
  -36.1510  158.0460   -9.7710 O   0  0  0  0  0  0  0  0  0  0  0  0
  -35.1360  158.0150   -8.7790 C   0  0  0  0  0  0  0  0  0  0  0  0
  -38.9025  157.2509  -11.1183 H   0  0  0  0  0  0  0  0  0  0  0  0
  -39.3197  158.0478  -12.6731 H   0  0  0  0  0  0  0  0  0  0  0  0
  -38.3987  156.5056  -12.6731 H   0  0  0  0  0  0  0  0  0  0  0  0
  -38.3738  160.6064  -12.7526 H   0  0  0  0  0  0  0  0  0  0  0  0
  -38.7704  164.8653  -11.0799 H   0  0  0  0  0  0  0  0  0  0  0  0
  -37.6768  164.9194   -8.8688 H   0  0  0  0  0  0  0  0  0  0  0  0
  -37.4896  160.4133   -6.9009 H   0  0  0  0  0  0  0  0  0  0  0  0
  -38.8243  160.0973   -4.8173 H   0  0  0  0  0  0  0  0  0  0  0  0
  -40.3680  162.6120   -3.0500 H   0  0  0  0  0  0  0  0  0  0  0  0
  -40.6960  162.3230   -1.0050 H   0  0  0  0  0  0  0  0  0  0  0  0
  -42.3125  159.7284   -0.1591 H   0  0  0  0  0  0  0  0  0  0  0  0
  -41.6242  158.6471    3.6150 H   0  0  0  0  0  0  0  0  0  0  0  0
  -42.9074  158.4236    2.3780 H   0  0  0  0  0  0  0  0  0  0  0  0
  -41.4640  157.3545    2.3780 H   0  0  0  0  0  0  0  0  0  0  0  0
  -37.1645  164.6387   -6.0685 H   0  0  0  0  0  0  0  0  0  0  0  0
  -36.1164  160.3553   -8.3293 H   0  0  0  0  0  0  0  0  0  0  0  0
  -35.5982  158.0291   -7.7809 H   0  0  0  0  0  0  0  0  0  0  0  0
  -34.5391  157.0982   -8.8937 H   0  0  0  0  0  0  0  0  0  0  0  0
  -34.4842  158.8937   -8.8937 H   0  0  0  0  0  0  0  0  0  0  0  0
  1  2  1  0
  2  3  1  0
  3  4  1  0
  4  5  2  0
  5  6  1  0
  6  7  2  0
  7  8  1  0
  8  9  2  0
  9 10  1  0
 10 11  1  0
 11 12  1  0
 12 13  2  0
 13 14  1  0
 14 15  1  0
 15 16  1  0
 16 17  2  0
 16 18  1  0
 18 19  1  0
 19 20  1  0
 20 21  2  0
 21 22  1  0
 21 23  1  0
 23 24  1  0
 14 25  2  0
 25 26  1  0
 25 27  1  0
  9 28  1  0
 28 29  2  0
 29 30  1  0
 30 31  1  0
 31 32  1  0
 30  3  2  0
 28  5  1  0
 27 11  2  0
 24 19  2  0
  1 33  1  0
  1 34  1  0
  1 35  1  0
  4 36  1  0
  7 37  1  0
  8 38  1  0
 12 39  1  0
 13 40  1  0
 15 41  1  0
 18 42  1  0
 20 43  1  0
 22 44  1  0
 22 45  1  0
 22 46  1  0
 27 47  1  0
 29 48  1  0
 32 49  1  0
 32 50  1  0
 32 51  1  0
M  END
>  <meeko>  (3) 
{"is_sidechain": false}

>  <vina_affinity_kcal_mol>  (3) 
-9.655

>  <pose_rank>  (3) 
3

$$$$

     RDKit          3D

 51 54  0  0  0  0  0  0  0  0999 V2000
  -33.9270  170.2220  -11.3520 C   0  0  0  0  0  0  0  0  0  0  0  0
  -35.1710  169.7220  -11.8230 O   0  0  0  0  0  0  0  0  0  0  0  0
  -35.5170  168.4390  -11.4720 C   0  0  0  0  0  0  0  0  0  0  0  0
  -34.7180  167.3130  -11.7040 C   0  0  0  0  0  0  0  0  0  0  0  0
  -35.1180  166.0380  -11.3280 C   0  0  0  0  0  0  0  0  0  0  0  0
  -34.2980  165.0040  -11.5880 N   0  0  0  0  0  0  0  0  0  0  0  0
  -34.6950  163.7620  -11.2310 C   0  0  0  0  0  0  0  0  0  0  0  0
  -35.8920  163.4910  -10.6070 C   0  0  0  0  0  0  0  0  0  0  0  0
  -36.7230  164.5700  -10.3210 C   0  0  0  0  0  0  0  0  0  0  0  0
  -37.9530  164.3580   -9.7310 O   0  0  0  0  0  0  0  0  0  0  0  0
  -37.9750  163.6480   -8.5510 C   0  0  0  0  0  0  0  0  0  0  0  0
  -38.1280  162.2630   -8.4880 C   0  0  0  0  0  0  0  0  0  0  0  0
  -38.1090  161.6080   -7.2500 C   0  0  0  0  0  0  0  0  0  0  0  0
  -37.9270  162.3270   -6.0660 C   0  0  0  0  0  0  0  0  0  0  0  0
  -37.8920  161.7230   -4.7850 N   0  0  0  0  0  0  0  0  0  0  0  0
  -38.8500  161.7960   -3.7830 C   0  0  0  0  0  0  0  0  0  0  0  0
  -39.8630  162.4790   -3.8450 O   0  0  0  0  0  0  0  0  0  0  0  0
  -38.4910  160.9840   -2.7210 N   0  0  0  0  0  0  0  0  0  0  0  0
  -39.1910  160.8870   -1.5320 C   0  0  0  0  0  0  0  0  0  0  0  0
  -39.9980  159.7710   -1.1940 C   0  0  0  0  0  0  0  0  0  0  0  0
  -40.4960  160.0640    0.0510 C   0  0  0  0  0  0  0  0  0  0  0  0
  -41.3910  159.3750    0.9960 C   0  0  0  0  0  0  0  0  0  0  0  0
  -40.0200  161.2730    0.4430 O   0  0  0  0  0  0  0  0  0  0  0  0
  -39.2020  161.7850   -0.5440 N   0  0  0  0  0  0  0  0  0  0  0  0
  -37.7430  163.7210   -6.1520 C   0  0  0  0  0  0  0  0  0  0  0  0
  -37.4850  164.6730   -4.7270 Cl  0  0  0  0  0  0  0  0  0  0  0  0
  -37.7620  164.3780   -7.3840 C   0  0  0  0  0  0  0  0  0  0  0  0
  -36.3620  165.8800  -10.6940 C   0  0  0  0  0  0  0  0  0  0  0  0
  -37.1760  167.0100  -10.4560 C   0  0  0  0  0  0  0  0  0  0  0  0
  -36.7620  168.2870  -10.8400 C   0  0  0  0  0  0  0  0  0  0  0  0
  -37.4890  169.4330  -10.6450 O   0  0  0  0  0  0  0  0  0  0  0  0
  -38.4670  169.7700  -11.6170 C   0  0  0  0  0  0  0  0  0  0  0  0
  -33.9250  170.2228  -10.2520 H   0  0  0  0  0  0  0  0  0  0  0  0
  -33.1116  169.5818  -11.7197 H   0  0  0  0  0  0  0  0  0  0  0  0
  -33.7815  171.2485  -11.7197 H   0  0  0  0  0  0  0  0  0  0  0  0
  -33.7442  167.4425  -12.1990 H   0  0  0  0  0  0  0  0  0  0  0  0
  -34.0231  162.9195  -11.4517 H   0  0  0  0  0  0  0  0  0  0  0  0
  -36.1801  162.4623  -10.3449 H   0  0  0  0  0  0  0  0  0  0  0  0
  -38.2639  161.6836   -9.4131 H   0  0  0  0  0  0  0  0  0  0  0  0
  -38.2387  160.5164   -7.2096 H   0  0  0  0  0  0  0  0  0  0  0  0
  -36.9980  161.3240   -4.5340 H   0  0  0  0  0  0  0  0  0  0  0  0
  -37.7390  160.3300   -2.8490 H   0  0  0  0  0  0  0  0  0  0  0  0
  -40.1838  158.8696   -1.7965 H   0  0  0  0  0  0  0  0  0  0  0  0
  -41.0865  159.6094    2.0267 H   0  0  0  0  0  0  0  0  0  0  0  0
  -42.4254  159.7122    0.8336 H   0  0  0  0  0  0  0  0  0  0  0  0
  -41.3296  158.2888    0.8336 H   0  0  0  0  0  0  0  0  0  0  0  0
  -37.6096  165.4663   -7.4327 H   0  0  0  0  0  0  0  0  0  0  0  0
  -38.1500  166.8819   -9.9610 H   0  0  0  0  0  0  0  0  0  0  0  0
  -39.3911  170.0884  -11.1123 H   0  0  0  0  0  0  0  0  0  0  0  0
  -38.0913  170.5905  -12.2460 H   0  0  0  0  0  0  0  0  0  0  0  0
  -38.6765  168.8922  -12.2460 H   0  0  0  0  0  0  0  0  0  0  0  0
  1  2  1  0
  2  3  1  0
  3  4  1  0
  4  5  2  0
  5  6  1  0
  6  7  2  0
  7  8  1  0
  8  9  2  0
  9 10  1  0
 10 11  1  0
 11 12  1  0
 12 13  2  0
 13 14  1  0
 14 15  1  0
 15 16  1  0
 16 17  2  0
 16 18  1  0
 18 19  1  0
 19 20  1  0
 20 21  2  0
 21 22  1  0
 21 23  1  0
 23 24  1  0
 14 25  2  0
 25 26  1  0
 25 27  1  0
  9 28  1  0
 28 29  2  0
 29 30  1  0
 30 31  1  0
 31 32  1  0
 30  3  2  0
 28  5  1  0
 27 11  2  0
 24 19  2  0
  1 33  1  0
  1 34  1  0
  1 35  1  0
  4 36  1  0
  7 37  1  0
  8 38  1  0
 12 39  1  0
 13 40  1  0
 15 41  1  0
 18 42  1  0
 20 43  1  0
 22 44  1  0
 22 45  1  0
 22 46  1  0
 27 47  1  0
 29 48  1  0
 32 49  1  0
 32 50  1  0
 32 51  1  0
M  END
>  <meeko>  (4) 
{"is_sidechain": false}

>  <vina_affinity_kcal_mol>  (4) 
-9.572

>  <pose_rank>  (4) 
4

$$$$

     RDKit          3D

 51 54  0  0  0  0  0  0  0  0999 V2000
  -37.9030  166.2720   -9.8910 C   0  0  0  0  0  0  0  0  0  0  0  0
  -37.5190  164.9370   -9.5940 O   0  0  0  0  0  0  0  0  0  0  0  0
  -37.8350  164.4440   -8.3510 C   0  0  0  0  0  0  0  0  0  0  0  0
  -37.9770  165.2290   -7.2010 C   0  0  0  0  0  0  0  0  0  0  0  0
  -38.2980  164.6780   -5.9690 C   0  0  0  0  0  0  0  0  0  0  0  0
  -38.4140  165.4960   -4.9070 N   0  0  0  0  0  0  0  0  0  0  0  0
  -38.7150  164.9540   -3.7060 C   0  0  0  0  0  0  0  0  0  0  0  0
  -38.9190  163.6070   -3.5030 C   0  0  0  0  0  0  0  0  0  0  0  0
  -38.8200  162.7710   -4.6110 C   0  0  0  0  0  0  0  0  0  0  0  0
  -38.9760  161.4080   -4.4650 O   0  0  0  0  0  0  0  0  0  0  0  0
  -39.0610  160.9150   -3.1810 C   0  0  0  0  0  0  0  0  0  0  0  0
  -39.2570  161.7200   -2.0590 C   0  0  0  0  0  0  0  0  0  0  0  0
  -39.3640  161.1400   -0.7870 C   0  0  0  0  0  0  0  0  0  0  0  0
  -39.2860  159.7550   -0.6260 C   0  0  0  0  0  0  0  0  0  0  0  0
  -39.3930  159.1090    0.6290 N   0  0  0  0  0  0  0  0  0  0  0  0
  -38.3820  158.5040    1.3650 C   0  0  0  0  0  0  0  0  0  0  0  0
  -37.2290  158.3780    0.9780 O   0  0  0  0  0  0  0  0  0  0  0  0
  -38.8730  158.0770    2.5870 N   0  0  0  0  0  0  0  0  0  0  0  0
  -38.1430  157.3700    3.5250 C   0  0  0  0  0  0  0  0  0  0  0  0
  -37.5170  157.9780    4.6430 C   0  0  0  0  0  0  0  0  0  0  0  0
  -36.9180  156.9410    5.3140 C   0  0  0  0  0  0  0  0  0  0  0  0
  -36.1070  156.8330    6.5380 C   0  0  0  0  0  0  0  0  0  0  0  0
  -37.1690  155.7840    4.6510 O   0  0  0  0  0  0  0  0  0  0  0  0
  -37.9370  156.0510    3.5360 N   0  0  0  0  0  0  0  0  0  0  0  0
  -39.1190  158.9570   -1.7760 C   0  0  0  0  0  0  0  0  0  0  0  0
  -39.0400  157.2300   -1.6550 Cl  0  0  0  0  0  0  0  0  0  0  0  0
  -39.0100  159.5300   -3.0440 C   0  0  0  0  0  0  0  0  0  0  0  0
  -38.4860  163.2880   -5.8790 C   0  0  0  0  0  0  0  0  0  0  0  0
  -38.3440  162.4860   -7.0340 C   0  0  0  0  0  0  0  0  0  0  0  0
  -38.0200  163.0540   -8.2670 C   0  0  0  0  0  0  0  0  0  0  0  0
  -37.8650  162.3490   -9.4330 O   0  0  0  0  0  0  0  0  0  0  0  0
  -36.9110  161.2980   -9.4500 C   0  0  0  0  0  0  0  0  0  0  0  0
  -38.0621  166.8250   -8.9535 H   0  0  0  0  0  0  0  0  0  0  0  0
  -37.1090  166.7607  -10.4747 H   0  0  0  0  0  0  0  0  0  0  0  0
  -38.8353  166.2641  -10.4747 H   0  0  0  0  0  0  0  0  0  0  0  0
  -37.8295  166.3165   -7.2764 H   0  0  0  0  0  0  0  0  0  0  0  0
  -38.8021  165.6275   -2.8407 H   0  0  0  0  0  0  0  0  0  0  0  0
  -39.1510  163.2079   -2.5045 H   0  0  0  0  0  0  0  0  0  0  0  0
  -39.3278  162.8119   -2.1723 H   0  0  0  0  0  0  0  0  0  0  0  0
  -39.5109  161.7827    0.0935 H   0  0  0  0  0  0  0  0  0  0  0  0
  -40.3420  158.9480    0.9390 H   0  0  0  0  0  0  0  0  0  0  0  0
  -39.7820  158.3930    2.8760 H   0  0  0  0  0  0  0  0  0  0  0  0
  -37.5125  159.0444    4.9127 H   0  0  0  0  0  0  0  0  0  0  0  0
  -36.7597  156.9199    7.4192 H   0  0  0  0  0  0  0  0  0  0  0  0
  -35.5962  155.8589    6.5547 H   0  0  0  0  0  0  0  0  0  0  0  0
  -35.3591  157.6395    6.5547 H   0  0  0  0  0  0  0  0  0  0  0  0
  -38.8845  158.8910   -3.9305 H   0  0  0  0  0  0  0  0  0  0  0  0
  -38.4910  161.3984   -6.9601 H   0  0  0  0  0  0  0  0  0  0  0  0
  -36.6562  161.0173   -8.4174 H   0  0  0  0  0  0  0  0  0  0  0  0
  -37.3338  160.4275   -9.9729 H   0  0  0  0  0  0  0  0  0  0  0  0
  -36.0037  161.6348   -9.9729 H   0  0  0  0  0  0  0  0  0  0  0  0
  1  2  1  0
  2  3  1  0
  3  4  1  0
  4  5  2  0
  5  6  1  0
  6  7  2  0
  7  8  1  0
  8  9  2  0
  9 10  1  0
 10 11  1  0
 11 12  1  0
 12 13  2  0
 13 14  1  0
 14 15  1  0
 15 16  1  0
 16 17  2  0
 16 18  1  0
 18 19  1  0
 19 20  1  0
 20 21  2  0
 21 22  1  0
 21 23  1  0
 23 24  1  0
 14 25  2  0
 25 26  1  0
 25 27  1  0
  9 28  1  0
 28 29  2  0
 29 30  1  0
 30 31  1  0
 31 32  1  0
 30  3  2  0
 28  5  1  0
 27 11  2  0
 24 19  2  0
  1 33  1  0
  1 34  1  0
  1 35  1  0
  4 36  1  0
  7 37  1  0
  8 38  1  0
 12 39  1  0
 13 40  1  0
 15 41  1  0
 18 42  1  0
 20 43  1  0
 22 44  1  0
 22 45  1  0
 22 46  1  0
 27 47  1  0
 29 48  1  0
 32 49  1  0
 32 50  1  0
 32 51  1  0
M  END
>  <meeko>  (5) 
{"is_sidechain": false}

>  <vina_affinity_kcal_mol>  (5) 
-9.33

>  <pose_rank>  (5) 
5

$$$$

     RDKit          3D

 51 54  0  0  0  0  0  0  0  0999 V2000
  -38.2940  147.3170    3.7940 C   0  0  0  0  0  0  0  0  0  0  0  0
  -38.6560  147.8460    5.0630 O   0  0  0  0  0  0  0  0  0  0  0  0
  -38.0900  149.0390    5.4410 C   0  0  0  0  0  0  0  0  0  0  0  0
  -36.7210  149.2320    5.6590 C   0  0  0  0  0  0  0  0  0  0  0  0
  -36.2030  150.4610    6.0420 C   0  0  0  0  0  0  0  0  0  0  0  0
  -34.8760  150.5690    6.2360 N   0  0  0  0  0  0  0  0  0  0  0  0
  -34.3760  151.7640    6.6200 C   0  0  0  0  0  0  0  0  0  0  0  0
  -35.1470  152.8880    6.8200 C   0  0  0  0  0  0  0  0  0  0  0  0
  -36.5150  152.7730    6.5930 C   0  0  0  0  0  0  0  0  0  0  0  0
  -37.3440  153.8540    6.8120 O   0  0  0  0  0  0  0  0  0  0  0  0
  -37.3760  154.8340    5.8440 C   0  0  0  0  0  0  0  0  0  0  0  0
  -37.7480  154.5970    4.5210 C   0  0  0  0  0  0  0  0  0  0  0  0
  -37.7860  155.6530    3.6000 C   0  0  0  0  0  0  0  0  0  0  0  0
  -37.4620  156.9540    3.9940 C   0  0  0  0  0  0  0  0  0  0  0  0
  -37.4880  158.0630    3.1150 N   0  0  0  0  0  0  0  0  0  0  0  0
  -38.4040  158.3310    2.1060 C   0  0  0  0  0  0  0  0  0  0  0  0
  -39.3090  157.5760    1.7790 O   0  0  0  0  0  0  0  0  0  0  0  0
  -38.1430  159.5660    1.5400 N   0  0  0  0  0  0  0  0  0  0  0  0
  -38.8240  160.0980    0.4610 C   0  0  0  0  0  0  0  0  0  0  0  0
  -38.2620  160.2080   -0.8370 C   0  0  0  0  0  0  0  0  0  0  0  0
  -39.2550  160.7690   -1.6010 C   0  0  0  0  0  0  0  0  0  0  0  0
  -39.3730  161.1650   -3.0140 C   0  0  0  0  0  0  0  0  0  0  0  0
  -40.3460  160.9800   -0.8210 O   0  0  0  0  0  0  0  0  0  0  0  0
  -40.0780  160.5580    0.4650 N   0  0  0  0  0  0  0  0  0  0  0  0
  -37.1200  157.1780    5.3420 C   0  0  0  0  0  0  0  0  0  0  0  0
  -36.7330  158.7700    5.9080 Cl  0  0  0  0  0  0  0  0  0  0  0  0
  -37.0790  156.1290    6.2630 C   0  0  0  0  0  0  0  0  0  0  0  0
  -37.0840  151.5420    6.2130 C   0  0  0  0  0  0  0  0  0  0  0  0
  -38.4690  151.3580    5.9980 C   0  0  0  0  0  0  0  0  0  0  0  0
  -38.9760  150.1150    5.6130 C   0  0  0  0  0  0  0  0  0  0  0  0
  -40.3020  149.8530    5.3820 O   0  0  0  0  0  0  0  0  0  0  0  0
  -40.8150  150.1250    4.0870 C   0  0  0  0  0  0  0  0  0  0  0  0
  -37.6779  146.4166    3.9343 H   0  0  0  0  0  0  0  0  0  0  0  0
  -39.2032  147.0553    3.2329 H   0  0  0  0  0  0  0  0  0  0  0  0
  -37.7208  148.0698    3.2329 H   0  0  0  0  0  0  0  0  0  0  0  0
  -36.0346  148.3833    5.5225 H   0  0  0  0  0  0  0  0  0  0  0  0
  -33.2910  151.8440    6.7823 H   0  0  0  0  0  0  0  0  0  0  0  0
  -34.6991  153.8383    7.1461 H   0  0  0  0  0  0  0  0  0  0  0  0
  -38.0123  153.5788    4.1994 H   0  0  0  0  0  0  0  0  0  0  0  0
  -38.0737  155.4557    2.5568 H   0  0  0  0  0  0  0  0  0  0  0  0
  -36.6550  158.6360    3.1380 H   0  0  0  0  0  0  0  0  0  0  0  0
  -37.4950  160.1790    2.0030 H   0  0  0  0  0  0  0  0  0  0  0  0
  -37.2536  159.9097   -1.1598 H   0  0  0  0  0  0  0  0  0  0  0  0
  -39.6867  162.2176   -3.0748 H   0  0  0  0  0  0  0  0  0  0  0  0
  -38.3995  161.0431   -3.5115 H   0  0  0  0  0  0  0  0  0  0  0  0
  -40.1210  160.5302   -3.5115 H   0  0  0  0  0  0  0  0  0  0  0  0
  -36.8139  156.3240    7.3126 H   0  0  0  0  0  0  0  0  0  0  0  0
  -39.1567  152.2054    6.1358 H   0  0  0  0  0  0  0  0  0  0  0  0
  -41.7836  150.6386    4.1767 H   0  0  0  0  0  0  0  0  0  0  0  0
  -40.1088  150.7671    3.5403 H   0  0  0  0  0  0  0  0  0  0  0  0
  -40.9502  149.1801    3.5403 H   0  0  0  0  0  0  0  0  0  0  0  0
  1  2  1  0
  2  3  1  0
  3  4  1  0
  4  5  2  0
  5  6  1  0
  6  7  2  0
  7  8  1  0
  8  9  2  0
  9 10  1  0
 10 11  1  0
 11 12  1  0
 12 13  2  0
 13 14  1  0
 14 15  1  0
 15 16  1  0
 16 17  2  0
 16 18  1  0
 18 19  1  0
 19 20  1  0
 20 21  2  0
 21 22  1  0
 21 23  1  0
 23 24  1  0
 14 25  2  0
 25 26  1  0
 25 27  1  0
  9 28  1  0
 28 29  2  0
 29 30  1  0
 30 31  1  0
 31 32  1  0
 30  3  2  0
 28  5  1  0
 27 11  2  0
 24 19  2  0
  1 33  1  0
  1 34  1  0
  1 35  1  0
  4 36  1  0
  7 37  1  0
  8 38  1  0
 12 39  1  0
 13 40  1  0
 15 41  1  0
 18 42  1  0
 20 43  1  0
 22 44  1  0
 22 45  1  0
 22 46  1  0
 27 47  1  0
 29 48  1  0
 32 49  1  0
 32 50  1  0
 32 51  1  0
M  END
>  <meeko>  (6) 
{"is_sidechain": false}

>  <vina_affinity_kcal_mol>  (6) 
-8.785

>  <pose_rank>  (6) 
6

$$$$

     RDKit          3D

 51 54  0  0  0  0  0  0  0  0999 V2000
  -35.0000  146.4400   11.1290 C   0  0  0  0  0  0  0  0  0  0  0  0
  -35.9300  147.5080   11.0120 O   0  0  0  0  0  0  0  0  0  0  0  0
  -35.7310  148.4190   10.0030 C   0  0  0  0  0  0  0  0  0  0  0  0
  -35.8370  148.1250    8.6390 C   0  0  0  0  0  0  0  0  0  0  0  0
  -35.6240  149.0860    7.6610 C   0  0  0  0  0  0  0  0  0  0  0  0
  -35.7400  148.7280    6.3690 N   0  0  0  0  0  0  0  0  0  0  0  0
  -35.5210  149.6630    5.4190 C   0  0  0  0  0  0  0  0  0  0  0  0
  -35.1920  150.9720    5.6940 C   0  0  0  0  0  0  0  0  0  0  0  0
  -35.0980  151.3390    7.0330 C   0  0  0  0  0  0  0  0  0  0  0  0
  -34.7340  152.6260    7.3720 O   0  0  0  0  0  0  0  0  0  0  0  0
  -35.4230  153.6580    6.7720 C   0  0  0  0  0  0  0  0  0  0  0  0
  -36.7890  153.8770    6.9480 C   0  0  0  0  0  0  0  0  0  0  0  0
  -37.4130  154.9670    6.3280 C   0  0  0  0  0  0  0  0  0  0  0  0
  -36.6790  155.8530    5.5370 C   0  0  0  0  0  0  0  0  0  0  0  0
  -37.2490  156.9760    4.8900 N   0  0  0  0  0  0  0  0  0  0  0  0
  -37.8400  157.0270    3.6340 C   0  0  0  0  0  0  0  0  0  0  0  0
  -37.8850  156.0860    2.8550 O   0  0  0  0  0  0  0  0  0  0  0  0
  -38.3680  158.2860    3.4070 N   0  0  0  0  0  0  0  0  0  0  0  0
  -38.9580  158.6910    2.2240 C   0  0  0  0  0  0  0  0  0  0  0  0
  -40.3290  159.0410    2.1180 C   0  0  0  0  0  0  0  0  0  0  0  0
  -40.5010  159.3860    0.8010 C   0  0  0  0  0  0  0  0  0  0  0  0
  -41.6440  159.8420   -0.0080 C   0  0  0  0  0  0  0  0  0  0  0  0
  -39.3150  159.2590    0.1540 O   0  0  0  0  0  0  0  0  0  0  0  0
  -38.3510  158.8280    1.0430 N   0  0  0  0  0  0  0  0  0  0  0  0
  -35.2940  155.6340    5.3970 C   0  0  0  0  0  0  0  0  0  0  0  0
  -34.3160  156.7080    4.4520 Cl  0  0  0  0  0  0  0  0  0  0  0  0
  -34.6680  154.5470    6.0110 C   0  0  0  0  0  0  0  0  0  0  0  0
  -35.2950  150.3940    8.0580 C   0  0  0  0  0  0  0  0  0  0  0  0
  -35.1850  150.7010    9.4330 C   0  0  0  0  0  0  0  0  0  0  0  0
  -35.4000  149.7230   10.4060 C   0  0  0  0  0  0  0  0  0  0  0  0
  -35.3150  149.9380   11.7580 O   0  0  0  0  0  0  0  0  0  0  0  0
  -35.5320  151.2580   12.2340 C   0  0  0  0  0  0  0  0  0  0  0  0
  -34.8161  146.2288   12.1928 H   0  0  0  0  0  0  0  0  0  0  0  0
  -35.4093  145.5424   10.6424 H   0  0  0  0  0  0  0  0  0  0  0  0
  -34.0547  146.7220   10.6424 H   0  0  0  0  0  0  0  0  0  0  0  0
  -36.0971  147.1010    8.3328 H   0  0  0  0  0  0  0  0  0  0  0  0
  -35.6106  149.3616    4.3649 H   0  0  0  0  0  0  0  0  0  0  0  0
  -35.0109  151.6980    4.8877 H   0  0  0  0  0  0  0  0  0  0  0  0
  -37.3780  153.1919    7.5754 H   0  0  0  0  0  0  0  0  0  0  0  0
  -38.4926  155.1267    6.4657 H   0  0  0  0  0  0  0  0  0  0  0  0
  -37.0630  157.8610    5.3430 H   0  0  0  0  0  0  0  0  0  0  0  0
  -38.4380  158.9250    4.1800 H   0  0  0  0  0  0  0  0  0  0  0  0
  -41.0867  159.0367    2.9154 H   0  0  0  0  0  0  0  0  0  0  0  0
  -42.4577  160.1666    0.6572 H   0  0  0  0  0  0  0  0  0  0  0  0
  -41.3312  160.6842   -0.6427 H   0  0  0  0  0  0  0  0  0  0  0  0
  -41.9968  159.0158   -0.6427 H   0  0  0  0  0  0  0  0  0  0  0  0
  -33.5850  154.3939    5.8942 H   0  0  0  0  0  0  0  0  0  0  0  0
  -34.9264  151.7248    9.7411 H   0  0  0  0  0  0  0  0  0  0  0  0
  -35.5316  151.2558   13.3340 H   0  0  0  0  0  0  0  0  0  0  0  0
  -34.7300  151.9161   11.8684 H   0  0  0  0  0  0  0  0  0  0  0  0
  -36.5025  151.6247   11.8684 H   0  0  0  0  0  0  0  0  0  0  0  0
  1  2  1  0
  2  3  1  0
  3  4  1  0
  4  5  2  0
  5  6  1  0
  6  7  2  0
  7  8  1  0
  8  9  2  0
  9 10  1  0
 10 11  1  0
 11 12  1  0
 12 13  2  0
 13 14  1  0
 14 15  1  0
 15 16  1  0
 16 17  2  0
 16 18  1  0
 18 19  1  0
 19 20  1  0
 20 21  2  0
 21 22  1  0
 21 23  1  0
 23 24  1  0
 14 25  2  0
 25 26  1  0
 25 27  1  0
  9 28  1  0
 28 29  2  0
 29 30  1  0
 30 31  1  0
 31 32  1  0
 30  3  2  0
 28  5  1  0
 27 11  2  0
 24 19  2  0
  1 33  1  0
  1 34  1  0
  1 35  1  0
  4 36  1  0
  7 37  1  0
  8 38  1  0
 12 39  1  0
 13 40  1  0
 15 41  1  0
 18 42  1  0
 20 43  1  0
 22 44  1  0
 22 45  1  0
 22 46  1  0
 27 47  1  0
 29 48  1  0
 32 49  1  0
 32 50  1  0
 32 51  1  0
M  END
>  <meeko>  (7) 
{"is_sidechain": false}

>  <vina_affinity_kcal_mol>  (7) 
-8.391

>  <pose_rank>  (7) 
7

$$$$

     RDKit          3D

 51 54  0  0  0  0  0  0  0  0999 V2000
  -37.6120  154.9490    4.0100 C   0  0  0  0  0  0  0  0  0  0  0  0
  -37.9520  156.2200    4.5470 O   0  0  0  0  0  0  0  0  0  0  0  0
  -38.4070  157.1800    3.6740 C   0  0  0  0  0  0  0  0  0  0  0  0
  -39.7540  157.3790    3.3500 C   0  0  0  0  0  0  0  0  0  0  0  0
  -40.1580  158.3650    2.4610 C   0  0  0  0  0  0  0  0  0  0  0  0
  -41.4700  158.4950    2.1960 N   0  0  0  0  0  0  0  0  0  0  0  0
  -41.8600  159.4480    1.3200 C   0  0  0  0  0  0  0  0  0  0  0  0
  -40.9890  160.3040    0.6830 C   0  0  0  0  0  0  0  0  0  0  0  0
  -39.6360  160.1780    0.9820 C   0  0  0  0  0  0  0  0  0  0  0  0
  -38.7100  160.9820    0.3470 O   0  0  0  0  0  0  0  0  0  0  0  0
  -38.6950  160.9640   -1.0300 C   0  0  0  0  0  0  0  0  0  0  0  0
  -38.4710  159.8100   -1.7820 C   0  0  0  0  0  0  0  0  0  0  0  0
  -38.5010  159.8650   -3.1820 C   0  0  0  0  0  0  0  0  0  0  0  0
  -38.7650  161.0680   -3.8420 C   0  0  0  0  0  0  0  0  0  0  0  0
  -38.8160  161.1880   -5.2520 N   0  0  0  0  0  0  0  0  0  0  0  0
  -37.9190  161.8450   -6.0840 C   0  0  0  0  0  0  0  0  0  0  0  0
  -36.9640  162.4990   -5.6890 O   0  0  0  0  0  0  0  0  0  0  0  0
  -38.2640  161.6460   -7.4100 N   0  0  0  0  0  0  0  0  0  0  0  0
  -37.6200  162.2250   -8.4870 C   0  0  0  0  0  0  0  0  0  0  0  0
  -38.2760  163.0580   -9.4290 C   0  0  0  0  0  0  0  0  0  0  0  0
  -37.2930  163.4250  -10.3150 C   0  0  0  0  0  0  0  0  0  0  0  0
  -37.2510  164.2620  -11.5250 C   0  0  0  0  0  0  0  0  0  0  0  0
  -36.1210  162.8560   -9.9320 O   0  0  0  0  0  0  0  0  0  0  0  0
  -36.3240  162.1100   -8.7900 N   0  0  0  0  0  0  0  0  0  0  0  0
  -39.0200  162.2150   -3.0650 C   0  0  0  0  0  0  0  0  0  0  0  0
  -39.3800  163.7350   -3.8160 Cl  0  0  0  0  0  0  0  0  0  0  0  0
  -38.9890  162.1650   -1.6700 C   0  0  0  0  0  0  0  0  0  0  0  0
  -39.1810  159.1850    1.8710 C   0  0  0  0  0  0  0  0  0  0  0  0
  -37.8180  158.9900    2.1900 C   0  0  0  0  0  0  0  0  0  0  0  0
  -37.4250  157.9940    3.0870 C   0  0  0  0  0  0  0  0  0  0  0  0
  -36.1280  157.7420    3.4510 O   0  0  0  0  0  0  0  0  0  0  0  0
  -35.6370  158.3630    4.6290 C   0  0  0  0  0  0  0  0  0  0  0  0
  -37.4230  154.2425    4.8316 H   0  0  0  0  0  0  0  0  0  0  0  0
  -38.4425  154.5783    3.3913 H   0  0  0  0  0  0  0  0  0  0  0  0
  -36.7073  155.0425    3.3913 H   0  0  0  0  0  0  0  0  0  0  0  0
  -40.5152  156.7345    3.8139 H   0  0  0  0  0  0  0  0  0  0  0  0
  -42.9341  159.5453    1.1036 H   0  0  0  0  0  0  0  0  0  0  0  0
  -41.3487  161.0572   -0.0335 H   0  0  0  0  0  0  0  0  0  0  0  0
  -38.2704  158.8548   -1.2746 H   0  0  0  0  0  0  0  0  0  0  0  0
  -38.3149  158.9523   -3.7670 H   0  0  0  0  0  0  0  0  0  0  0  0
  -39.6860  160.8850   -5.6680 H   0  0  0  0  0  0  0  0  0  0  0  0
  -38.9530  160.9470   -7.6260 H   0  0  0  0  0  0  0  0  0  0  0  0
  -39.3374  163.3463   -9.4461 H   0  0  0  0  0  0  0  0  0  0  0  0
  -37.1978  165.3220  -11.2359 H   0  0  0  0  0  0  0  0  0  0  0  0
  -36.3649  163.9997  -12.1217 H   0  0  0  0  0  0  0  0  0  0  0  0
  -38.1589  164.0898  -12.1217 H   0  0  0  0  0  0  0  0  0  0  0  0
  -39.1958  163.0698   -1.0797 H   0  0  0  0  0  0  0  0  0  0  0  0
  -37.0554  159.6321    1.7250 H   0  0  0  0  0  0  0  0  0  0  0  0
  -36.0440  157.8482    5.5118 H   0  0  0  0  0  0  0  0  0  0  0  0
  -34.5387  158.3040    4.6441 H   0  0  0  0  0  0  0  0  0  0  0  0
  -35.9478  159.4181    4.6441 H   0  0  0  0  0  0  0  0  0  0  0  0
  1  2  1  0
  2  3  1  0
  3  4  1  0
  4  5  2  0
  5  6  1  0
  6  7  2  0
  7  8  1  0
  8  9  2  0
  9 10  1  0
 10 11  1  0
 11 12  1  0
 12 13  2  0
 13 14  1  0
 14 15  1  0
 15 16  1  0
 16 17  2  0
 16 18  1  0
 18 19  1  0
 19 20  1  0
 20 21  2  0
 21 22  1  0
 21 23  1  0
 23 24  1  0
 14 25  2  0
 25 26  1  0
 25 27  1  0
  9 28  1  0
 28 29  2  0
 29 30  1  0
 30 31  1  0
 31 32  1  0
 30  3  2  0
 28  5  1  0
 27 11  2  0
 24 19  2  0
  1 33  1  0
  1 34  1  0
  1 35  1  0
  4 36  1  0
  7 37  1  0
  8 38  1  0
 12 39  1  0
 13 40  1  0
 15 41  1  0
 18 42  1  0
 20 43  1  0
 22 44  1  0
 22 45  1  0
 22 46  1  0
 27 47  1  0
 29 48  1  0
 32 49  1  0
 32 50  1  0
 32 51  1  0
M  END
>  <meeko>  (8) 
{"is_sidechain": false}

>  <vina_affinity_kcal_mol>  (8) 
-8.359

>  <pose_rank>  (8) 
8

$$$$

     RDKit          3D

 51 54  0  0  0  0  0  0  0  0999 V2000
  -33.0470  157.4490    5.0270 C   0  0  0  0  0  0  0  0  0  0  0  0
  -34.2600  157.0020    4.4350 O   0  0  0  0  0  0  0  0  0  0  0  0
  -34.8130  155.8400    4.9160 C   0  0  0  0  0  0  0  0  0  0  0  0
  -34.0830  154.6930    5.2450 C   0  0  0  0  0  0  0  0  0  0  0  0
  -34.6950  153.5440    5.7270 C   0  0  0  0  0  0  0  0  0  0  0  0
  -33.9270  152.4790    6.0180 N   0  0  0  0  0  0  0  0  0  0  0  0
  -34.5270  151.3580    6.4770 C   0  0  0  0  0  0  0  0  0  0  0  0
  -35.8860  151.2420    6.6710 C   0  0  0  0  0  0  0  0  0  0  0  0
  -36.6700  152.3570    6.3900 C   0  0  0  0  0  0  0  0  0  0  0  0
  -38.0410  152.2910    6.5290 O   0  0  0  0  0  0  0  0  0  0  0  0
  -38.7230  151.4490    5.6780 C   0  0  0  0  0  0  0  0  0  0  0  0
  -38.6580  151.5410    4.2880 C   0  0  0  0  0  0  0  0  0  0  0  0
  -39.3570  150.6280    3.4880 C   0  0  0  0  0  0  0  0  0  0  0  0
  -40.1180  149.6100    4.0670 C   0  0  0  0  0  0  0  0  0  0  0  0
  -40.8420  148.6530    3.3150 N   0  0  0  0  0  0  0  0  0  0  0  0
  -40.3430  147.5500    2.6350 C   0  0  0  0  0  0  0  0  0  0  0  0
  -39.1530  147.2850    2.5290 O   0  0  0  0  0  0  0  0  0  0  0  0
  -41.3830  146.8040    2.1080 N   0  0  0  0  0  0  0  0  0  0  0  0
  -41.2250  145.6850    1.3120 C   0  0  0  0  0  0  0  0  0  0  0  0
  -41.0190  145.7500   -0.0900 C   0  0  0  0  0  0  0  0  0  0  0  0
  -40.9040  144.4410   -0.4870 C   0  0  0  0  0  0  0  0  0  0  0  0
  -40.6850  143.7670   -1.7770 C   0  0  0  0  0  0  0  0  0  0  0  0
  -41.0270  143.6380    0.6010 O   0  0  0  0  0  0  0  0  0  0  0  0
  -41.2240  144.4150    1.7240 N   0  0  0  0  0  0  0  0  0  0  0  0
  -40.1470  149.5140    5.4730 C   0  0  0  0  0  0  0  0  0  0  0  0
  -41.0480  148.2610    6.2600 Cl  0  0  0  0  0  0  0  0  0  0  0  0
  -39.4530  150.4230    6.2740 C   0  0  0  0  0  0  0  0  0  0  0  0
  -36.0910  153.5400    5.8890 C   0  0  0  0  0  0  0  0  0  0  0  0
  -36.8380  154.6930    5.5590 C   0  0  0  0  0  0  0  0  0  0  0  0
  -36.2090  155.8410    5.0740 C   0  0  0  0  0  0  0  0  0  0  0  0
  -36.8590  156.9990    4.7330 O   0  0  0  0  0  0  0  0  0  0  0  0
  -37.6310  156.9990    3.5410 C   0  0  0  0  0  0  0  0  0  0  0  0
  -33.1394  157.4150    6.1226 H   0  0  0  0  0  0  0  0  0  0  0  0
  -32.2210  156.7962    4.7082 H   0  0  0  0  0  0  0  0  0  0  0  0
  -32.8422  158.4817    4.7082 H   0  0  0  0  0  0  0  0  0  0  0  0
  -32.9904  154.7018    5.1179 H   0  0  0  0  0  0  0  0  0  0  0  0
  -33.8940  150.4888    6.7088 H   0  0  0  0  0  0  0  0  0  0  0  0
  -36.3338  150.3050    7.0337 H   0  0  0  0  0  0  0  0  0  0  0  0
  -38.0560  152.3329    3.8184 H   0  0  0  0  0  0  0  0  0  0  0  0
  -39.3060  150.7137    2.3925 H   0  0  0  0  0  0  0  0  0  0  0  0
  -41.8060  148.9000    3.1390 H   0  0  0  0  0  0  0  0  0  0  0  0
  -42.3200  147.0090    2.4080 H   0  0  0  0  0  0  0  0  0  0  0  0
  -40.9637  146.6502   -0.7197 H   0  0  0  0  0  0  0  0  0  0  0  0
  -40.3496  142.7346   -1.5990 H   0  0  0  0  0  0  0  0  0  0  0  0
  -41.6251  143.7538   -2.3480 H   0  0  0  0  0  0  0  0  0  0  0  0
  -39.9167  144.3089   -2.3480 H   0  0  0  0  0  0  0  0  0  0  0  0
  -39.4825  150.3295    7.3696 H   0  0  0  0  0  0  0  0  0  0  0  0
  -37.9306  154.6859    5.6860 H   0  0  0  0  0  0  0  0  0  0  0  0
  -37.8303  155.9619    3.2332 H   0  0  0  0  0  0  0  0  0  0  0  0
  -38.5842  157.5175    3.7215 H   0  0  0  0  0  0  0  0  0  0  0  0
  -37.0765  157.5175    2.7450 H   0  0  0  0  0  0  0  0  0  0  0  0
  1  2  1  0
  2  3  1  0
  3  4  1  0
  4  5  2  0
  5  6  1  0
  6  7  2  0
  7  8  1  0
  8  9  2  0
  9 10  1  0
 10 11  1  0
 11 12  1  0
 12 13  2  0
 13 14  1  0
 14 15  1  0
 15 16  1  0
 16 17  2  0
 16 18  1  0
 18 19  1  0
 19 20  1  0
 20 21  2  0
 21 22  1  0
 21 23  1  0
 23 24  1  0
 14 25  2  0
 25 26  1  0
 25 27  1  0
  9 28  1  0
 28 29  2  0
 29 30  1  0
 30 31  1  0
 31 32  1  0
 30  3  2  0
 28  5  1  0
 27 11  2  0
 24 19  2  0
  1 33  1  0
  1 34  1  0
  1 35  1  0
  4 36  1  0
  7 37  1  0
  8 38  1  0
 12 39  1  0
 13 40  1  0
 15 41  1  0
 18 42  1  0
 20 43  1  0
 22 44  1  0
 22 45  1  0
 22 46  1  0
 27 47  1  0
 29 48  1  0
 32 49  1  0
 32 50  1  0
 32 51  1  0
M  END
>  <meeko>  (9) 
{"is_sidechain": false}

>  <vina_affinity_kcal_mol>  (9) 
-8.256

>  <pose_rank>  (9) 
9

$$$$

     RDKit          3D

 51 54  0  0  0  0  0  0  0  0999 V2000
  -30.7400  144.4670    0.2000 C   0  0  0  0  0  0  0  0  0  0  0  0
  -32.0260  144.8140   -0.2950 O   0  0  0  0  0  0  0  0  0  0  0  0
  -33.0110  145.0840    0.6240 C   0  0  0  0  0  0  0  0  0  0  0  0
  -33.3230  144.2630    1.7140 C   0  0  0  0  0  0  0  0  0  0  0  0
  -34.3310  144.5840    2.6120 C   0  0  0  0  0  0  0  0  0  0  0  0
  -34.5750  143.7450    3.6350 N   0  0  0  0  0  0  0  0  0  0  0  0
  -35.5640  144.0540    4.5010 C   0  0  0  0  0  0  0  0  0  0  0  0
  -36.3390  145.1890    4.4040 C   0  0  0  0  0  0  0  0  0  0  0  0
  -36.0640  146.0640    3.3580 C   0  0  0  0  0  0  0  0  0  0  0  0
  -36.8300  147.1980    3.1850 O   0  0  0  0  0  0  0  0  0  0  0  0
  -36.5870  148.2600    4.0290 C   0  0  0  0  0  0  0  0  0  0  0  0
  -35.3250  148.5680    4.5360 C   0  0  0  0  0  0  0  0  0  0  0  0
  -35.1510  149.6840    5.3640 C   0  0  0  0  0  0  0  0  0  0  0  0
  -36.2320  150.5080    5.6850 C   0  0  0  0  0  0  0  0  0  0  0  0
  -36.1210  151.6530    6.5110 N   0  0  0  0  0  0  0  0  0  0  0  0
  -35.8910  152.9660    6.1200 C   0  0  0  0  0  0  0  0  0  0  0  0
  -35.6710  153.3140    4.9690 O   0  0  0  0  0  0  0  0  0  0  0  0
  -35.9520  153.8070    7.2180 N   0  0  0  0  0  0  0  0  0  0  0  0
  -35.6950  155.1650    7.1850 C   0  0  0  0  0  0  0  0  0  0  0  0
  -36.7070  156.1450    7.0190 C   0  0  0  0  0  0  0  0  0  0  0  0
  -36.0410  157.3440    7.0520 C   0  0  0  0  0  0  0  0  0  0  0  0
  -36.4460  158.7560    6.9410 C   0  0  0  0  0  0  0  0  0  0  0  0
  -34.7160  157.1080    7.2310 O   0  0  0  0  0  0  0  0  0  0  0  0
  -34.5010  155.7480    7.3170 N   0  0  0  0  0  0  0  0  0  0  0  0
  -37.4930  150.2000    5.1380 C   0  0  0  0  0  0  0  0  0  0  0  0
  -38.8740  151.1930    5.4720 Cl  0  0  0  0  0  0  0  0  0  0  0  0
  -37.6720  149.0870    4.3130 C   0  0  0  0  0  0  0  0  0  0  0  0
  -35.0570  145.7720    2.4170 C   0  0  0  0  0  0  0  0  0  0  0  0
  -34.7510  146.6060    1.3180 C   0  0  0  0  0  0  0  0  0  0  0  0
  -33.7350  146.2700    0.4220 C   0  0  0  0  0  0  0  0  0  0  0  0
  -33.3750  147.0240   -0.6660 O   0  0  0  0  0  0  0  0  0  0  0  0
  -34.2740  147.0750   -1.7630 C   0  0  0  0  0  0  0  0  0  0  0  0
  -30.7570  144.4716    1.2999 H   0  0  0  0  0  0  0  0  0  0  0  0
  -30.4677  143.4633   -0.1583 H   0  0  0  0  0  0  0  0  0  0  0  0
  -29.9998  145.1975   -0.1583 H   0  0  0  0  0  0  0  0  0  0  0  0
  -32.7516  143.3350    1.8632 H   0  0  0  0  0  0  0  0  0  0  0  0
  -35.7621  143.3600    5.3311 H   0  0  0  0  0  0  0  0  0  0  0  0
  -37.1435  145.3952    5.1252 H   0  0  0  0  0  0  0  0  0  0  0  0
  -34.4632  147.9322    4.2847 H   0  0  0  0  0  0  0  0  0  0  0  0
  -34.1530  149.9139    5.7655 H   0  0  0  0  0  0  0  0  0  0  0  0
  -36.0550  151.4530    7.5000 H   0  0  0  0  0  0  0  0  0  0  0  0
  -36.3180  153.4450    8.0810 H   0  0  0  0  0  0  0  0  0  0  0  0
  -37.7871  155.9801    6.8919 H   0  0  0  0  0  0  0  0  0  0  0  0
  -36.5683  159.1826    7.9475 H   0  0  0  0  0  0  0  0  0  0  0  0
  -35.6727  159.3175    6.3963 H   0  0  0  0  0  0  0  0  0  0  0  0
  -37.3994  158.8223    6.3963 H   0  0  0  0  0  0  0  0  0  0  0  0
  -38.6630  148.8649    3.8903 H   0  0  0  0  0  0  0  0  0  0  0  0
  -35.3221  147.5339    1.1664 H   0  0  0  0  0  0  0  0  0  0  0  0
  -35.3066  147.1336   -1.3884 H   0  0  0  0  0  0  0  0  0  0  0  0
  -34.0552  147.9622   -2.3754 H   0  0  0  0  0  0  0  0  0  0  0  0
  -34.1570  146.1688   -2.3754 H   0  0  0  0  0  0  0  0  0  0  0  0
  1  2  1  0
  2  3  1  0
  3  4  1  0
  4  5  2  0
  5  6  1  0
  6  7  2  0
  7  8  1  0
  8  9  2  0
  9 10  1  0
 10 11  1  0
 11 12  1  0
 12 13  2  0
 13 14  1  0
 14 15  1  0
 15 16  1  0
 16 17  2  0
 16 18  1  0
 18 19  1  0
 19 20  1  0
 20 21  2  0
 21 22  1  0
 21 23  1  0
 23 24  1  0
 14 25  2  0
 25 26  1  0
 25 27  1  0
  9 28  1  0
 28 29  2  0
 29 30  1  0
 30 31  1  0
 31 32  1  0
 30  3  2  0
 28  5  1  0
 27 11  2  0
 24 19  2  0
  1 33  1  0
  1 34  1  0
  1 35  1  0
  4 36  1  0
  7 37  1  0
  8 38  1  0
 12 39  1  0
 13 40  1  0
 15 41  1  0
 18 42  1  0
 20 43  1  0
 22 44  1  0
 22 45  1  0
 22 46  1  0
 27 47  1  0
 29 48  1  0
 32 49  1  0
 32 50  1  0
 32 51  1  0
M  END
>  <meeko>  (10) 
{"is_sidechain": false}

>  <vina_affinity_kcal_mol>  (10) 
-7.949

>  <pose_rank>  (10) 
10

$$$$
