
     RDKit          3D

 42 45  0  0  0  0  0  0  0  0999 V2000
  -10.6380    6.3170  -19.3640 C   0  0  0  0  0  0  0  0  0  0  0  0
   -9.6150    6.4960  -18.3280 N   0  0  0  0  0  0  0  0  0  0  0  0
   -9.3660    7.8880  -17.9600 C   0  0  0  0  0  0  0  0  0  0  0  0
   -9.8700    5.6280  -17.2290 C   0  0  0  0  0  0  0  0  0  0  0  0
  -10.9150    5.8870  -16.3300 C   0  0  0  0  0  0  0  0  0  0  0  0
  -11.1870    5.0170  -15.2780 C   0  0  0  0  0  0  0  0  0  0  0  0
  -10.4290    3.8550  -15.1030 C   0  0  0  0  0  0  0  0  0  0  0  0
  -10.7470    2.9960  -13.9510 C   0  0  0  0  0  0  0  0  0  0  0  0
  -11.9520    2.8670  -13.3770 C   0  0  0  0  0  0  0  0  0  0  0  0
  -13.2410    3.5540  -13.7620 C   0  0  0  0  0  0  0  0  0  0  0  0
  -13.4400    4.3680  -14.6420 O   0  0  0  0  0  0  0  0  0  0  0  0
  -14.1850    3.0600  -12.8730 N   0  0  0  0  0  0  0  0  0  0  0  0
  -13.6240    2.1500  -11.9840 C   0  0  0  0  0  0  0  0  0  0  0  0
  -14.2740    1.4730  -10.9730 C   0  0  0  0  0  0  0  0  0  0  0  0
  -13.5110    0.6010  -10.1910 C   0  0  0  0  0  0  0  0  0  0  0  0
  -12.1350    0.4320  -10.4370 C   0  0  0  0  0  0  0  0  0  0  0  0
  -11.4980    1.1290  -11.4690 C   0  0  0  0  0  0  0  0  0  0  0  0
  -12.2590    1.9910  -12.2390 C   0  0  0  0  0  0  0  0  0  0  0  0
   -9.3640    3.5540  -15.9920 C   0  0  0  0  0  0  0  0  0  0  0  0
   -8.5640    2.3910  -15.8630 C   0  0  0  0  0  0  0  0  0  0  0  0
   -7.5150    2.1140  -16.7390 C   0  0  0  0  0  0  0  0  0  0  0  0
   -7.2330    2.9950  -17.7710 C   0  0  0  0  0  0  0  0  0  0  0  0
   -8.0070    4.1460  -17.9250 C   0  0  0  0  0  0  0  0  0  0  0  0
   -9.0820    4.4510  -17.0590 C   0  0  0  0  0  0  0  0  0  0  0  0
  -11.6152    6.1460  -18.8887 H   0  0  0  0  0  0  0  0  0  0  0  0
  -10.6878    7.2201  -19.9901 H   0  0  0  0  0  0  0  0  0  0  0  0
  -10.3782    5.4507  -19.9901 H   0  0  0  0  0  0  0  0  0  0  0  0
   -9.3495    7.9802  -16.8640 H   0  0  0  0  0  0  0  0  0  0  0  0
   -8.3964    8.2077  -18.3695 H   0  0  0  0  0  0  0  0  0  0  0  0
  -10.1646    8.5240  -18.3695 H   0  0  0  0  0  0  0  0  0  0  0  0
  -11.5286    6.7909  -16.4582 H   0  0  0  0  0  0  0  0  0  0  0  0
  -12.0048    5.2454  -14.5787 H   0  0  0  0  0  0  0  0  0  0  0  0
   -9.9225    2.4072  -13.5226 H   0  0  0  0  0  0  0  0  0  0  0  0
  -15.1510    3.3470  -12.8980 H   0  0  0  0  0  0  0  0  0  0  0  0
  -15.3494    1.6137  -10.7896 H   0  0  0  0  0  0  0  0  0  0  0  0
  -13.9907    0.0409   -9.3748 H   0  0  0  0  0  0  0  0  0  0  0  0
  -11.5526   -0.2580   -9.8087 H   0  0  0  0  0  0  0  0  0  0  0  0
  -10.4234    0.9958  -11.6629 H   0  0  0  0  0  0  0  0  0  0  0  0
   -8.7772    1.6852  -15.0467 H   0  0  0  0  0  0  0  0  0  0  0  0
   -6.9146    1.2012  -16.6116 H   0  0  0  0  0  0  0  0  0  0  0  0
   -6.4044    2.7883  -18.4643 H   0  0  0  0  0  0  0  0  0  0  0  0
   -7.7730    4.8385  -18.7470 H   0  0  0  0  0  0  0  0  0  0  0  0
  1  2  1  0
  2  3  1  0
  2  4  1  0
  4  5  2  0
  5  6  1  0
  6  7  2  0
  7  8  1  0
  8  9  2  0
  9 10  1  0
 10 11  2  0
 10 12  1  0
 12 13  1  0
 13 14  2  0
 14 15  1  0
 15 16  2  0
 16 17  1  0
 17 18  2  0
  7 19  1  0
 19 20  2  0
 20 21  1  0
 21 22  2  0
 22 23  1  0
 23 24  2  0
 24  4  1  0
 18  9  1  0
 24 19  1  0
 18 13  1  0
  1 25  1  0
  1 26  1  0
  1 27  1  0
  3 28  1  0
  3 29  1  0
  3 30  1  0
  5 31  1  0
  6 32  1  0
  8 33  1  0
 12 34  1  0
 14 35  1  0
 15 36  1  0
 16 37  1  0
 17 38  1  0
 20 39  1  0
 21 40  1  0
 22 41  1  0
 23 42  1  0
M  END
>  <meeko>  (1) 
{"is_sidechain": false}

>  <vina_affinity_kcal_mol>  (1) 
-10.483

>  <pose_rank>  (1) 
1

$$$$

     RDKit          3D

 42 45  0  0  0  0  0  0  0  0999 V2000
   -9.2500    7.2570  -16.9560 C   0  0  0  0  0  0  0  0  0  0  0  0
  -10.2730    6.2150  -17.0930 N   0  0  0  0  0  0  0  0  0  0  0  0
  -11.0780    6.3170  -18.3090 C   0  0  0  0  0  0  0  0  0  0  0  0
   -9.7030    4.9310  -16.8650 C   0  0  0  0  0  0  0  0  0  0  0  0
   -8.6330    4.4660  -17.6450 C   0  0  0  0  0  0  0  0  0  0  0  0
   -8.0510    3.2270  -17.3960 C   0  0  0  0  0  0  0  0  0  0  0  0
   -8.5140    2.4220  -16.3500 C   0  0  0  0  0  0  0  0  0  0  0  0
   -7.8770    1.1080  -16.1620 C   0  0  0  0  0  0  0  0  0  0  0  0
   -6.8350    0.8480  -15.3590 C   0  0  0  0  0  0  0  0  0  0  0  0
   -6.0810    1.8150  -14.4770 C   0  0  0  0  0  0  0  0  0  0  0  0
   -6.2480    3.0090  -14.3340 O   0  0  0  0  0  0  0  0  0  0  0  0
   -5.1190    1.0400  -13.8440 N   0  0  0  0  0  0  0  0  0  0  0  0
   -5.1930   -0.2910  -14.2390 C   0  0  0  0  0  0  0  0  0  0  0  0
   -4.3900   -1.3280  -13.8100 C   0  0  0  0  0  0  0  0  0  0  0  0
   -4.6400   -2.5960  -14.3420 C   0  0  0  0  0  0  0  0  0  0  0  0
   -5.6730   -2.7910  -15.2780 C   0  0  0  0  0  0  0  0  0  0  0  0
   -6.4750   -1.7250  -15.6980 C   0  0  0  0  0  0  0  0  0  0  0  0
   -6.2230   -0.4720  -15.1670 C   0  0  0  0  0  0  0  0  0  0  0  0
   -9.5920    2.8560  -15.5350 C   0  0  0  0  0  0  0  0  0  0  0  0
  -10.1010    2.0830  -14.4610 C   0  0  0  0  0  0  0  0  0  0  0  0
  -11.1670    2.5200  -13.6760 C   0  0  0  0  0  0  0  0  0  0  0  0
  -11.7590    3.7440  -13.9430 C   0  0  0  0  0  0  0  0  0  0  0  0
  -11.2760    4.5280  -14.9900 C   0  0  0  0  0  0  0  0  0  0  0  0
  -10.1910    4.1190  -15.8000 C   0  0  0  0  0  0  0  0  0  0  0  0
   -9.0621    7.4484  -15.8892 H   0  0  0  0  0  0  0  0  0  0  0  0
   -8.3194    6.9229  -17.4380 H   0  0  0  0  0  0  0  0  0  0  0  0
   -9.6012    8.1813  -17.4380 H   0  0  0  0  0  0  0  0  0  0  0  0
  -12.1357    6.4510  -18.0383 H   0  0  0  0  0  0  0  0  0  0  0  0
  -10.7391    7.1794  -18.9018 H   0  0  0  0  0  0  0  0  0  0  0  0
  -10.9649    5.3973  -18.9018 H   0  0  0  0  0  0  0  0  0  0  0  0
   -8.2488    5.0902  -18.4652 H   0  0  0  0  0  0  0  0  0  0  0  0
   -7.2202    2.8778  -18.0267 H   0  0  0  0  0  0  0  0  0  0  0  0
   -8.2932    0.2638  -16.7313 H   0  0  0  0  0  0  0  0  0  0  0  0
   -4.4620    1.4280  -13.1850 H   0  0  0  0  0  0  0  0  0  0  0  0
   -3.5852   -1.1632  -13.0785 H   0  0  0  0  0  0  0  0  0  0  0  0
   -4.0232   -3.4503  -14.0260 H   0  0  0  0  0  0  0  0  0  0  0  0
   -5.8522   -3.7970  -15.6853 H   0  0  0  0  0  0  0  0  0  0  0  0
   -7.2825   -1.8780  -16.4291 H   0  0  0  0  0  0  0  0  0  0  0  0
   -9.6407    1.1086  -14.2404 H   0  0  0  0  0  0  0  0  0  0  0  0
  -11.5363    1.8962  -12.8487 H   0  0  0  0  0  0  0  0  0  0  0  0
  -12.6044    4.0949  -13.3330 H   0  0  0  0  0  0  0  0  0  0  0  0
  -11.7549    5.4973  -15.1929 H   0  0  0  0  0  0  0  0  0  0  0  0
  1  2  1  0
  2  3  1  0
  2  4  1  0
  4  5  2  0
  5  6  1  0
  6  7  2  0
  7  8  1  0
  8  9  2  0
  9 10  1  0
 10 11  2  0
 10 12  1  0
 12 13  1  0
 13 14  2  0
 14 15  1  0
 15 16  2  0
 16 17  1  0
 17 18  2  0
  7 19  1  0
 19 20  2  0
 20 21  1  0
 21 22  2  0
 22 23  1  0
 23 24  2  0
 24  4  1  0
 18  9  1  0
 24 19  1  0
 18 13  1  0
  1 25  1  0
  1 26  1  0
  1 27  1  0
  3 28  1  0
  3 29  1  0
  3 30  1  0
  5 31  1  0
  6 32  1  0
  8 33  1  0
 12 34  1  0
 14 35  1  0
 15 36  1  0
 16 37  1  0
 17 38  1  0
 20 39  1  0
 21 40  1  0
 22 41  1  0
 23 42  1  0
M  END
>  <meeko>  (2) 
{"is_sidechain": false}

>  <vina_affinity_kcal_mol>  (2) 
-10.377

>  <pose_rank>  (2) 
2

$$$$

     RDKit          3D

 42 45  0  0  0  0  0  0  0  0999 V2000
   -9.5930    7.5210  -17.6500 C   0  0  0  0  0  0  0  0  0  0  0  0
  -10.3150    6.2430  -17.6430 N   0  0  0  0  0  0  0  0  0  0  0  0
  -10.8320    5.8360  -18.9480 C   0  0  0  0  0  0  0  0  0  0  0  0
   -9.5490    5.2490  -16.9710 C   0  0  0  0  0  0  0  0  0  0  0  0
   -8.2460    4.9380  -17.3860 C   0  0  0  0  0  0  0  0  0  0  0  0
   -7.4850    3.9920  -16.7040 C   0  0  0  0  0  0  0  0  0  0  0  0
   -8.0010    3.3410  -15.5790 C   0  0  0  0  0  0  0  0  0  0  0  0
   -7.1570    2.3280  -14.9260 C   0  0  0  0  0  0  0  0  0  0  0  0
   -7.0910    1.0290  -15.2550 C   0  0  0  0  0  0  0  0  0  0  0  0
   -7.8490    0.3110  -16.3460 C   0  0  0  0  0  0  0  0  0  0  0  0
   -8.6750    0.7500  -17.1200 O   0  0  0  0  0  0  0  0  0  0  0  0
   -7.4030   -1.0020  -16.2800 N   0  0  0  0  0  0  0  0  0  0  0  0
   -6.4610   -1.1730  -15.2720 C   0  0  0  0  0  0  0  0  0  0  0  0
   -5.8160   -2.3450  -14.9320 C   0  0  0  0  0  0  0  0  0  0  0  0
   -4.9020   -2.2900  -13.8760 C   0  0  0  0  0  0  0  0  0  0  0  0
   -4.6590   -1.0810  -13.1970 C   0  0  0  0  0  0  0  0  0  0  0  0
   -5.3250    0.0950  -13.5610 C   0  0  0  0  0  0  0  0  0  0  0  0
   -6.2290    0.0340  -14.6070 C   0  0  0  0  0  0  0  0  0  0  0  0
   -9.3150    3.6290  -15.1250 C   0  0  0  0  0  0  0  0  0  0  0  0
   -9.8880    3.0010  -13.9910 C   0  0  0  0  0  0  0  0  0  0  0  0
  -11.1840    3.2890  -13.5640 C   0  0  0  0  0  0  0  0  0  0  0  0
  -11.9470    4.2130  -14.2590 C   0  0  0  0  0  0  0  0  0  0  0  0
  -11.4060    4.8500  -15.3760 C   0  0  0  0  0  0  0  0  0  0  0  0
  -10.0930    4.5880  -15.8310 C   0  0  0  0  0  0  0  0  0  0  0  0
   -9.4102    7.8445  -16.6147 H   0  0  0  0  0  0  0  0  0  0  0  0
   -8.6319    7.3963  -18.1703 H   0  0  0  0  0  0  0  0  0  0  0  0
  -10.1958    8.2799  -18.1703 H   0  0  0  0  0  0  0  0  0  0  0  0
  -11.6893    5.1611  -18.8085 H   0  0  0  0  0  0  0  0  0  0  0  0
  -11.1535    6.7260  -19.5089 H   0  0  0  0  0  0  0  0  0  0  0  0
  -10.0423    5.3146  -19.5089 H   0  0  0  0  0  0  0  0  0  0  0  0
   -7.8193    5.4483  -18.2621 H   0  0  0  0  0  0  0  0  0  0  0  0
   -6.4692    3.7547  -17.0532 H   0  0  0  0  0  0  0  0  0  0  0  0
   -6.5231    2.6662  -14.0931 H   0  0  0  0  0  0  0  0  0  0  0  0
   -7.7430   -1.7190  -16.9030 H   0  0  0  0  0  0  0  0  0  0  0  0
   -6.0132   -3.2839  -15.4701 H   0  0  0  0  0  0  0  0  0  0  0  0
   -4.3666   -3.2016  -13.5721 H   0  0  0  0  0  0  0  0  0  0  0  0
   -3.9355   -1.0602  -12.3687 H   0  0  0  0  0  0  0  0  0  0  0  0
   -5.1354    1.0401  -13.0311 H   0  0  0  0  0  0  0  0  0  0  0  0
   -9.2929    2.2646  -13.4311 H   0  0  0  0  0  0  0  0  0  0  0  0
  -11.5987    2.7845  -12.6789 H   0  0  0  0  0  0  0  0  0  0  0  0
  -12.9720    4.4428  -13.9325 H   0  0  0  0  0  0  0  0  0  0  0  0
  -12.0215    5.5807  -15.9212 H   0  0  0  0  0  0  0  0  0  0  0  0
  1  2  1  0
  2  3  1  0
  2  4  1  0
  4  5  2  0
  5  6  1  0
  6  7  2  0
  7  8  1  0
  8  9  2  0
  9 10  1  0
 10 11  2  0
 10 12  1  0
 12 13  1  0
 13 14  2  0
 14 15  1  0
 15 16  2  0
 16 17  1  0
 17 18  2  0
  7 19  1  0
 19 20  2  0
 20 21  1  0
 21 22  2  0
 22 23  1  0
 23 24  2  0
 24  4  1  0
 18  9  1  0
 24 19  1  0
 18 13  1  0
  1 25  1  0
  1 26  1  0
  1 27  1  0
  3 28  1  0
  3 29  1  0
  3 30  1  0
  5 31  1  0
  6 32  1  0
  8 33  1  0
 12 34  1  0
 14 35  1  0
 15 36  1  0
 16 37  1  0
 17 38  1  0
 20 39  1  0
 21 40  1  0
 22 41  1  0
 23 42  1  0
M  END
>  <meeko>  (3) 
{"is_sidechain": false}

>  <vina_affinity_kcal_mol>  (3) 
-10.216

>  <pose_rank>  (3) 
3

$$$$

     RDKit          3D

 42 45  0  0  0  0  0  0  0  0999 V2000
  -13.7550    3.2970  -13.9550 C   0  0  0  0  0  0  0  0  0  0  0  0
  -12.6790    2.9760  -13.0110 N   0  0  0  0  0  0  0  0  0  0  0  0
  -13.1110    2.2130  -11.8410 C   0  0  0  0  0  0  0  0  0  0  0  0
  -11.5660    2.4220  -13.7030 C   0  0  0  0  0  0  0  0  0  0  0  0
  -11.1210    1.1200  -13.4320 C   0  0  0  0  0  0  0  0  0  0  0  0
  -10.0560    0.5660  -14.1360 C   0  0  0  0  0  0  0  0  0  0  0  0
   -9.4140    1.2950  -15.1420 C   0  0  0  0  0  0  0  0  0  0  0  0
   -8.2730    0.6630  -15.8250 C   0  0  0  0  0  0  0  0  0  0  0  0
   -6.9770    0.8870  -15.5590 C   0  0  0  0  0  0  0  0  0  0  0  0
   -6.3900    1.8170  -14.5250 C   0  0  0  0  0  0  0  0  0  0  0  0
   -6.9620    2.5580  -13.7500 O   0  0  0  0  0  0  0  0  0  0  0  0
   -5.0170    1.6590  -14.6450 N   0  0  0  0  0  0  0  0  0  0  0  0
   -4.6920    0.7400  -15.6370 C   0  0  0  0  0  0  0  0  0  0  0  0
   -3.4260    0.3480  -16.0190 C   0  0  0  0  0  0  0  0  0  0  0  0
   -3.3300   -0.5940  -17.0480 C   0  0  0  0  0  0  0  0  0  0  0  0
   -4.4870   -1.1110  -17.6590 C   0  0  0  0  0  0  0  0  0  0  0  0
   -5.7610   -0.6990  -17.2540 C   0  0  0  0  0  0  0  0  0  0  0  0
   -5.8490    0.2330  -16.2350 C   0  0  0  0  0  0  0  0  0  0  0  0
   -9.8340    2.6150  -15.4500 C   0  0  0  0  0  0  0  0  0  0  0  0
   -9.2220    3.3990  -16.4600 C   0  0  0  0  0  0  0  0  0  0  0  0
   -9.6410    4.6990  -16.7430 C   0  0  0  0  0  0  0  0  0  0  0  0
  -10.6860    5.2540  -16.0230 C   0  0  0  0  0  0  0  0  0  0  0  0
  -11.3110    4.5040  -15.0270 C   0  0  0  0  0  0  0  0  0  0  0  0
  -10.9160    3.1820  -14.7200 C   0  0  0  0  0  0  0  0  0  0  0  0
  -14.6635    3.5680  -13.3971 H   0  0  0  0  0  0  0  0  0  0  0  0
  -13.4474    4.1425  -14.5879 H   0  0  0  0  0  0  0  0  0  0  0  0
  -13.9609    2.4212  -14.5879 H   0  0  0  0  0  0  0  0  0  0  0  0
  -12.8104    2.7438  -10.9256 H   0  0  0  0  0  0  0  0  0  0  0  0
  -14.2054    2.1031  -11.8586 H   0  0  0  0  0  0  0  0  0  0  0  0
  -12.6422    1.2180  -11.8586 H   0  0  0  0  0  0  0  0  0  0  0  0
  -11.6211    0.5279  -12.6514 H   0  0  0  0  0  0  0  0  0  0  0  0
   -9.7166   -0.4532  -13.8993 H   0  0  0  0  0  0  0  0  0  0  0  0
   -8.5034   -0.0567  -16.6243 H   0  0  0  0  0  0  0  0  0  0  0  0
   -4.3630    2.1640  -14.0670 H   0  0  0  0  0  0  0  0  0  0  0  0
   -2.5285    0.7595  -15.5340 H   0  0  0  0  0  0  0  0  0  0  0  0
   -2.3392   -0.9344  -17.3833 H   0  0  0  0  0  0  0  0  0  0  0  0
   -4.3883   -1.8504  -18.4674 H   0  0  0  0  0  0  0  0  0  0  0  0
   -6.6657   -1.1038  -17.7312 H   0  0  0  0  0  0  0  0  0  0  0  0
   -8.3910    2.9690  -17.0384 H   0  0  0  0  0  0  0  0  0  0  0  0
   -9.1442    5.2803  -17.5337 H   0  0  0  0  0  0  0  0  0  0  0  0
  -11.0209    6.2800  -16.2354 H   0  0  0  0  0  0  0  0  0  0  0  0
  -12.1390    4.9564  -14.4615 H   0  0  0  0  0  0  0  0  0  0  0  0
  1  2  1  0
  2  3  1  0
  2  4  1  0
  4  5  2  0
  5  6  1  0
  6  7  2  0
  7  8  1  0
  8  9  2  0
  9 10  1  0
 10 11  2  0
 10 12  1  0
 12 13  1  0
 13 14  2  0
 14 15  1  0
 15 16  2  0
 16 17  1  0
 17 18  2  0
  7 19  1  0
 19 20  2  0
 20 21  1  0
 21 22  2  0
 22 23  1  0
 23 24  2  0
 24  4  1  0
 18  9  1  0
 24 19  1  0
 18 13  1  0
  1 25  1  0
  1 26  1  0
  1 27  1  0
  3 28  1  0
  3 29  1  0
  3 30  1  0
  5 31  1  0
  6 32  1  0
  8 33  1  0
 12 34  1  0
 14 35  1  0
 15 36  1  0
 16 37  1  0
 17 38  1  0
 20 39  1  0
 21 40  1  0
 22 41  1  0
 23 42  1  0
M  END
>  <meeko>  (4) 
{"is_sidechain": false}

>  <vina_affinity_kcal_mol>  (4) 
-9.79

>  <pose_rank>  (4) 
4

$$$$

     RDKit          3D

 42 45  0  0  0  0  0  0  0  0999 V2000
  -10.0470    7.2870  -16.7800 C   0  0  0  0  0  0  0  0  0  0  0  0
  -10.3520    5.9070  -17.1760 N   0  0  0  0  0  0  0  0  0  0  0  0
  -11.0300    5.7850  -18.4650 C   0  0  0  0  0  0  0  0  0  0  0  0
   -9.1970    5.0870  -17.0320 C   0  0  0  0  0  0  0  0  0  0  0  0
   -8.1070    5.2150  -17.9040 C   0  0  0  0  0  0  0  0  0  0  0  0
   -6.9630    4.4380  -17.7390 C   0  0  0  0  0  0  0  0  0  0  0  0
   -6.8730    3.5210  -16.6870 C   0  0  0  0  0  0  0  0  0  0  0  0
   -5.6500    2.7080  -16.5900 C   0  0  0  0  0  0  0  0  0  0  0  0
   -5.5160    1.4390  -17.0020 C   0  0  0  0  0  0  0  0  0  0  0  0
   -6.5600    0.5600  -17.6480 C   0  0  0  0  0  0  0  0  0  0  0  0
   -7.7210    0.8110  -17.9010 O   0  0  0  0  0  0  0  0  0  0  0  0
   -5.9080   -0.6400  -17.8970 N   0  0  0  0  0  0  0  0  0  0  0  0
   -4.5830   -0.5990  -17.4760 C   0  0  0  0  0  0  0  0  0  0  0  0
   -3.6540   -1.6150  -17.5690 C   0  0  0  0  0  0  0  0  0  0  0  0
   -2.3710   -1.3570  -17.0770 C   0  0  0  0  0  0  0  0  0  0  0  0
   -2.0560   -0.1070  -16.5110 C   0  0  0  0  0  0  0  0  0  0  0  0
   -3.0160    0.9070  -16.4280 C   0  0  0  0  0  0  0  0  0  0  0  0
   -4.2830    0.6460  -16.9170 C   0  0  0  0  0  0  0  0  0  0  0  0
   -7.9530    3.3630  -15.7800 C   0  0  0  0  0  0  0  0  0  0  0  0
   -7.9160    2.4510  -14.6960 C   0  0  0  0  0  0  0  0  0  0  0  0
   -8.9900    2.3010  -13.8190 C   0  0  0  0  0  0  0  0  0  0  0  0
  -10.1350    3.0590  -14.0010 C   0  0  0  0  0  0  0  0  0  0  0  0
  -10.1980    3.9680  -15.0570 C   0  0  0  0  0  0  0  0  0  0  0  0
   -9.1240    4.1510  -15.9590 C   0  0  0  0  0  0  0  0  0  0  0  0
  -10.0312    7.3585  -15.6824 H   0  0  0  0  0  0  0  0  0  0  0  0
   -9.0636    7.5745  -17.1804 H   0  0  0  0  0  0  0  0  0  0  0  0
  -10.8176    7.9622  -17.1804 H   0  0  0  0  0  0  0  0  0  0  0  0
  -12.1003    5.5924  -18.2995 H   0  0  0  0  0  0  0  0  0  0  0  0
  -10.9091    6.7193  -19.0328 H   0  0  0  0  0  0  0  0  0  0  0  0
  -10.5909    4.9514  -19.0328 H   0  0  0  0  0  0  0  0  0  0  0  0
   -8.1559    5.9394  -18.7303 H   0  0  0  0  0  0  0  0  0  0  0  0
   -6.1237    4.5465  -18.4417 H   0  0  0  0  0  0  0  0  0  0  0  0
   -4.7667    3.1840  -16.1391 H   0  0  0  0  0  0  0  0  0  0  0  0
   -6.3680   -1.4240  -18.3320 H   0  0  0  0  0  0  0  0  0  0  0  0
   -3.9123   -2.5881  -18.0121 H   0  0  0  0  0  0  0  0  0  0  0  0
   -1.5994   -2.1390  -17.1327 H   0  0  0  0  0  0  0  0  0  0  0  0
   -1.0407    0.0748  -16.1287 H   0  0  0  0  0  0  0  0  0  0  0  0
   -2.7702    1.8840  -15.9864 H   0  0  0  0  0  0  0  0  0  0  0  0
   -7.0126    1.8428  -14.5415 H   0  0  0  0  0  0  0  0  0  0  0  0
   -8.9281    1.5843  -12.9869 H   0  0  0  0  0  0  0  0  0  0  0  0
  -10.9890    2.9448  -13.3172 H   0  0  0  0  0  0  0  0  0  0  0  0
  -11.1135    4.5624  -15.1929 H   0  0  0  0  0  0  0  0  0  0  0  0
  1  2  1  0
  2  3  1  0
  2  4  1  0
  4  5  2  0
  5  6  1  0
  6  7  2  0
  7  8  1  0
  8  9  2  0
  9 10  1  0
 10 11  2  0
 10 12  1  0
 12 13  1  0
 13 14  2  0
 14 15  1  0
 15 16  2  0
 16 17  1  0
 17 18  2  0
  7 19  1  0
 19 20  2  0
 20 21  1  0
 21 22  2  0
 22 23  1  0
 23 24  2  0
 24  4  1  0
 18  9  1  0
 24 19  1  0
 18 13  1  0
  1 25  1  0
  1 26  1  0
  1 27  1  0
  3 28  1  0
  3 29  1  0
  3 30  1  0
  5 31  1  0
  6 32  1  0
  8 33  1  0
 12 34  1  0
 14 35  1  0
 15 36  1  0
 16 37  1  0
 17 38  1  0
 20 39  1  0
 21 40  1  0
 22 41  1  0
 23 42  1  0
M  END
>  <meeko>  (5) 
{"is_sidechain": false}

>  <vina_affinity_kcal_mol>  (5) 
-9.639

>  <pose_rank>  (5) 
5

$$$$

     RDKit          3D

 42 45  0  0  0  0  0  0  0  0999 V2000
  -13.6300   -0.9100   -9.8400 C   0  0  0  0  0  0  0  0  0  0  0  0
  -12.7300    0.2460   -9.7710 N   0  0  0  0  0  0  0  0  0  0  0  0
  -11.9390    0.3230   -8.5440 C   0  0  0  0  0  0  0  0  0  0  0  0
  -11.9740    0.3550  -10.9720 C   0  0  0  0  0  0  0  0  0  0  0  0
  -10.9060   -0.5150  -11.2350 C   0  0  0  0  0  0  0  0  0  0  0  0
  -10.1920   -0.4320  -12.4270 C   0  0  0  0  0  0  0  0  0  0  0  0
  -10.5360    0.5150  -13.3970 C   0  0  0  0  0  0  0  0  0  0  0  0
   -9.7190    0.5720  -14.6210 C   0  0  0  0  0  0  0  0  0  0  0  0
   -8.6880    1.4010  -14.8380 C   0  0  0  0  0  0  0  0  0  0  0  0
   -8.1300    2.4500  -13.9060 C   0  0  0  0  0  0  0  0  0  0  0  0
   -8.5100    2.7680  -12.7970 O   0  0  0  0  0  0  0  0  0  0  0  0
   -7.0630    3.0070  -14.5980 N   0  0  0  0  0  0  0  0  0  0  0  0
   -6.9030    2.4210  -15.8490 C   0  0  0  0  0  0  0  0  0  0  0  0
   -5.9460    2.7340  -16.7920 C   0  0  0  0  0  0  0  0  0  0  0  0
   -5.9700    2.0160  -17.9920 C   0  0  0  0  0  0  0  0  0  0  0  0
   -6.9370    1.0190  -18.2130 C   0  0  0  0  0  0  0  0  0  0  0  0
   -7.8970    0.7190  -17.2410 C   0  0  0  0  0  0  0  0  0  0  0  0
   -7.8680    1.4320  -16.0560 C   0  0  0  0  0  0  0  0  0  0  0  0
  -11.6130    1.4120  -13.1720 C   0  0  0  0  0  0  0  0  0  0  0  0
  -12.0060    2.3900  -14.1190 C   0  0  0  0  0  0  0  0  0  0  0  0
  -13.0600    3.2710  -13.8780 C   0  0  0  0  0  0  0  0  0  0  0  0
  -13.7520    3.2010  -12.6800 C   0  0  0  0  0  0  0  0  0  0  0  0
  -13.3900    2.2440  -11.7310 C   0  0  0  0  0  0  0  0  0  0  0  0
  -12.3330    1.3310  -11.9480 C   0  0  0  0  0  0  0  0  0  0  0  0
  -13.8850   -1.2375   -8.8213 H   0  0  0  0  0  0  0  0  0  0  0  0
  -14.5487   -0.6280  -10.3752 H   0  0  0  0  0  0  0  0  0  0  0  0
  -13.1313   -1.7315  -10.3752 H   0  0  0  0  0  0  0  0  0  0  0  0
  -12.6070    0.2580   -7.6725 H   0  0  0  0  0  0  0  0  0  0  0  0
  -11.2204   -0.5094   -8.5181 H   0  0  0  0  0  0  0  0  0  0  0  0
  -11.3944    1.2784   -8.5181 H   0  0  0  0  0  0  0  0  0  0  0  0
  -10.6285   -1.2739  -10.4886 H   0  0  0  0  0  0  0  0  0  0  0  0
   -9.3503   -1.1168  -12.6075 H   0  0  0  0  0  0  0  0  0  0  0  0
   -9.9778   -0.1280  -15.4291 H   0  0  0  0  0  0  0  0  0  0  0  0
   -6.4940    3.7430  -14.2100 H   0  0  0  0  0  0  0  0  0  0  0  0
   -5.1949    3.5162  -16.6077 H   0  0  0  0  0  0  0  0  0  0  0  0
   -5.2246    2.2334  -18.7712 H   0  0  0  0  0  0  0  0  0  0  0  0
   -6.9384    0.4669  -19.1644 H   0  0  0  0  0  0  0  0  0  0  0  0
   -8.6530   -0.0611  -17.4139 H   0  0  0  0  0  0  0  0  0  0  0  0
  -11.4632    2.4564  -15.0734 H   0  0  0  0  0  0  0  0  0  0  0  0
  -13.3404    4.0177  -14.6355 H   0  0  0  0  0  0  0  0  0  0  0  0
  -14.5812    3.8950  -12.4781 H   0  0  0  0  0  0  0  0  0  0  0  0
  -13.9456    2.1987  -10.7827 H   0  0  0  0  0  0  0  0  0  0  0  0
  1  2  1  0
  2  3  1  0
  2  4  1  0
  4  5  2  0
  5  6  1  0
  6  7  2  0
  7  8  1  0
  8  9  2  0
  9 10  1  0
 10 11  2  0
 10 12  1  0
 12 13  1  0
 13 14  2  0
 14 15  1  0
 15 16  2  0
 16 17  1  0
 17 18  2  0
  7 19  1  0
 19 20  2  0
 20 21  1  0
 21 22  2  0
 22 23  1  0
 23 24  2  0
 24  4  1  0
 18  9  1  0
 24 19  1  0
 18 13  1  0
  1 25  1  0
  1 26  1  0
  1 27  1  0
  3 28  1  0
  3 29  1  0
  3 30  1  0
  5 31  1  0
  6 32  1  0
  8 33  1  0
 12 34  1  0
 14 35  1  0
 15 36  1  0
 16 37  1  0
 17 38  1  0
 20 39  1  0
 21 40  1  0
 22 41  1  0
 23 42  1  0
M  END
>  <meeko>  (6) 
{"is_sidechain": false}

>  <vina_affinity_kcal_mol>  (6) 
-9.632

>  <pose_rank>  (6) 
6

$$$$

     RDKit          3D

 42 45  0  0  0  0  0  0  0  0999 V2000
   -6.1710    3.7810  -17.1000 C   0  0  0  0  0  0  0  0  0  0  0  0
   -7.2810    3.0260  -17.6930 N   0  0  0  0  0  0  0  0  0  0  0  0
   -6.8810    1.7860  -18.3570 C   0  0  0  0  0  0  0  0  0  0  0  0
   -8.3360    2.8800  -16.7500 C   0  0  0  0  0  0  0  0  0  0  0  0
   -8.4570    1.7180  -15.9740 C   0  0  0  0  0  0  0  0  0  0  0  0
   -9.4680    1.5930  -15.0250 C   0  0  0  0  0  0  0  0  0  0  0  0
  -10.3790    2.6340  -14.8150 C   0  0  0  0  0  0  0  0  0  0  0  0
  -11.4440    2.4240  -13.8210 C   0  0  0  0  0  0  0  0  0  0  0  0
  -11.3920    1.5760  -12.7820 C   0  0  0  0  0  0  0  0  0  0  0  0
  -10.2590    0.6570  -12.3930 C   0  0  0  0  0  0  0  0  0  0  0  0
   -9.1910    0.4830  -12.9440 O   0  0  0  0  0  0  0  0  0  0  0  0
  -10.7010    0.0190  -11.2410 N   0  0  0  0  0  0  0  0  0  0  0  0
  -11.9760    0.4400  -10.8810 C   0  0  0  0  0  0  0  0  0  0  0  0
  -12.7130    0.0120   -9.7960 C   0  0  0  0  0  0  0  0  0  0  0  0
  -13.9830    0.5700   -9.6230 C   0  0  0  0  0  0  0  0  0  0  0  0
  -14.4770    1.5280  -10.5280 C   0  0  0  0  0  0  0  0  0  0  0  0
  -13.7100    1.9470  -11.6210 C   0  0  0  0  0  0  0  0  0  0  0  0
  -12.4540    1.3910  -11.7860 C   0  0  0  0  0  0  0  0  0  0  0  0
  -10.2890    3.8280  -15.5780 C   0  0  0  0  0  0  0  0  0  0  0  0
  -11.1840    4.9150  -15.4070 C   0  0  0  0  0  0  0  0  0  0  0  0
  -11.0880    6.0780  -16.1710 C   0  0  0  0  0  0  0  0  0  0  0  0
  -10.0950    6.1880  -17.1300 C   0  0  0  0  0  0  0  0  0  0  0  0
   -9.1980    5.1360  -17.3170 C   0  0  0  0  0  0  0  0  0  0  0  0
   -9.2620    3.9480  -16.5540 C   0  0  0  0  0  0  0  0  0  0  0  0
   -6.2402    3.7339  -16.0032 H   0  0  0  0  0  0  0  0  0  0  0  0
   -5.2153    3.3448  -17.4262 H   0  0  0  0  0  0  0  0  0  0  0  0
   -6.2255    4.8301  -17.4262 H   0  0  0  0  0  0  0  0  0  0  0  0
   -6.6361    1.0269  -17.5995 H   0  0  0  0  0  0  0  0  0  0  0  0
   -7.7078    1.4234  -18.9855 H   0  0  0  0  0  0  0  0  0  0  0  0
   -5.9982    1.9749  -18.9855 H   0  0  0  0  0  0  0  0  0  0  0  0
   -7.7429    0.8936  -16.1172 H   0  0  0  0  0  0  0  0  0  0  0  0
   -9.5513    0.6681  -14.4354 H   0  0  0  0  0  0  0  0  0  0  0  0
  -12.3643    3.0145  -13.9403 H   0  0  0  0  0  0  0  0  0  0  0  0
  -10.1400   -0.6600  -10.7520 H   0  0  0  0  0  0  0  0  0  0  0  0
  -12.3172   -0.7380   -9.0954 H   0  0  0  0  0  0  0  0  0  0  0  0
  -14.6031    0.2569   -8.7701 H   0  0  0  0  0  0  0  0  0  0  0  0
  -15.4797    1.9532  -10.3741 H   0  0  0  0  0  0  0  0  0  0  0  0
  -14.0946    2.6966  -12.3283 H   0  0  0  0  0  0  0  0  0  0  0  0
  -11.9776    4.8385  -14.6491 H   0  0  0  0  0  0  0  0  0  0  0  0
  -11.7974    6.9036  -16.0126 H   0  0  0  0  0  0  0  0  0  0  0  0
  -10.0140    7.0994  -17.7406 H   0  0  0  0  0  0  0  0  0  0  0  0
   -8.4152    5.2344  -18.0835 H   0  0  0  0  0  0  0  0  0  0  0  0
  1  2  1  0
  2  3  1  0
  2  4  1  0
  4  5  2  0
  5  6  1  0
  6  7  2  0
  7  8  1  0
  8  9  2  0
  9 10  1  0
 10 11  2  0
 10 12  1  0
 12 13  1  0
 13 14  2  0
 14 15  1  0
 15 16  2  0
 16 17  1  0
 17 18  2  0
  7 19  1  0
 19 20  2  0
 20 21  1  0
 21 22  2  0
 22 23  1  0
 23 24  2  0
 24  4  1  0
 18  9  1  0
 24 19  1  0
 18 13  1  0
  1 25  1  0
  1 26  1  0
  1 27  1  0
  3 28  1  0
  3 29  1  0
  3 30  1  0
  5 31  1  0
  6 32  1  0
  8 33  1  0
 12 34  1  0
 14 35  1  0
 15 36  1  0
 16 37  1  0
 17 38  1  0
 20 39  1  0
 21 40  1  0
 22 41  1  0
 23 42  1  0
M  END
>  <meeko>  (7) 
{"is_sidechain": false}

>  <vina_affinity_kcal_mol>  (7) 
-9.348

>  <pose_rank>  (7) 
7

$$$$

     RDKit          3D

 42 45  0  0  0  0  0  0  0  0999 V2000
  -13.0240   -3.0090   -5.2870 C   0  0  0  0  0  0  0  0  0  0  0  0
  -14.0310   -2.7480   -6.3210 N   0  0  0  0  0  0  0  0  0  0  0  0
  -15.2880   -2.2000   -5.8140 C   0  0  0  0  0  0  0  0  0  0  0  0
  -13.4550   -2.0150   -7.3970 C   0  0  0  0  0  0  0  0  0  0  0  0
  -13.1000   -0.6670   -7.2450 C   0  0  0  0  0  0  0  0  0  0  0  0
  -12.5020    0.0380   -8.2860 C   0  0  0  0  0  0  0  0  0  0  0  0
  -12.2290   -0.5920   -9.5050 C   0  0  0  0  0  0  0  0  0  0  0  0
  -11.6260    0.2200  -10.5750 C   0  0  0  0  0  0  0  0  0  0  0  0
  -12.2670    1.1240  -11.3310 C   0  0  0  0  0  0  0  0  0  0  0  0
  -13.7240    1.5170  -11.2700 C   0  0  0  0  0  0  0  0  0  0  0  0
  -14.6030    1.0850  -10.5510 O   0  0  0  0  0  0  0  0  0  0  0  0
  -13.8670    2.4990  -12.2400 N   0  0  0  0  0  0  0  0  0  0  0  0
  -12.6650    2.7530  -12.8920 C   0  0  0  0  0  0  0  0  0  0  0  0
  -12.4500    3.6630  -13.9060 C   0  0  0  0  0  0  0  0  0  0  0  0
  -11.1540    3.7530  -14.4230 C   0  0  0  0  0  0  0  0  0  0  0  0
  -10.1220    2.9410  -13.9190 C   0  0  0  0  0  0  0  0  0  0  0  0
  -10.3640    2.0250  -12.8890 C   0  0  0  0  0  0  0  0  0  0  0  0
  -11.6480    1.9410  -12.3820 C   0  0  0  0  0  0  0  0  0  0  0  0
  -12.5700   -1.9560   -9.6990 C   0  0  0  0  0  0  0  0  0  0  0  0
  -12.3150   -2.6440  -10.9120 C   0  0  0  0  0  0  0  0  0  0  0  0
  -12.6650   -3.9820  -11.0900 C   0  0  0  0  0  0  0  0  0  0  0  0
  -13.2820   -4.6730  -10.0590 C   0  0  0  0  0  0  0  0  0  0  0  0
  -13.5400   -4.0220   -8.8520 C   0  0  0  0  0  0  0  0  0  0  0  0
  -13.1910   -2.6690   -8.6360 C   0  0  0  0  0  0  0  0  0  0  0  0
  -13.4800   -2.8908   -4.2930 H   0  0  0  0  0  0  0  0  0  0  0  0
  -12.6437   -4.0354   -5.3963 H   0  0  0  0  0  0  0  0  0  0  0  0
  -12.1931   -2.2965   -5.3963 H   0  0  0  0  0  0  0  0  0  0  0  0
  -15.2736   -2.2063   -4.7141 H   0  0  0  0  0  0  0  0  0  0  0  0
  -15.4092   -1.1674   -6.1732 H   0  0  0  0  0  0  0  0  0  0  0  0
  -16.1270   -2.8140   -6.1732 H   0  0  0  0  0  0  0  0  0  0  0  0
  -13.2969   -0.1591   -6.2893 H   0  0  0  0  0  0  0  0  0  0  0  0
  -12.2423    1.0981   -8.1491 H   0  0  0  0  0  0  0  0  0  0  0  0
  -10.5540    0.0722  -10.7721 H   0  0  0  0  0  0  0  0  0  0  0  0
  -14.7490    2.9530  -12.4220 H   0  0  0  0  0  0  0  0  0  0  0  0
  -13.2652    4.2925  -14.2923 H   0  0  0  0  0  0  0  0  0  0  0  0
  -10.9392    4.4663  -15.2324 H   0  0  0  0  0  0  0  0  0  0  0  0
   -9.1097    3.0272  -14.3407 H   0  0  0  0  0  0  0  0  0  0  0  0
   -9.5568    1.3905  -12.4943 H   0  0  0  0  0  0  0  0  0  0  0  0
  -11.8263   -2.1061  -11.7377 H   0  0  0  0  0  0  0  0  0  0  0  0
  -12.4525   -4.4866  -12.0440 H   0  0  0  0  0  0  0  0  0  0  0  0
  -13.5663   -5.7273  -10.1913 H   0  0  0  0  0  0  0  0  0  0  0  0
  -14.0314   -4.5802   -8.0414 H   0  0  0  0  0  0  0  0  0  0  0  0
  1  2  1  0
  2  3  1  0
  2  4  1  0
  4  5  2  0
  5  6  1  0
  6  7  2  0
  7  8  1  0
  8  9  2  0
  9 10  1  0
 10 11  2  0
 10 12  1  0
 12 13  1  0
 13 14  2  0
 14 15  1  0
 15 16  2  0
 16 17  1  0
 17 18  2  0
  7 19  1  0
 19 20  2  0
 20 21  1  0
 21 22  2  0
 22 23  1  0
 23 24  2  0
 24  4  1  0
 18  9  1  0
 24 19  1  0
 18 13  1  0
  1 25  1  0
  1 26  1  0
  1 27  1  0
  3 28  1  0
  3 29  1  0
  3 30  1  0
  5 31  1  0
  6 32  1  0
  8 33  1  0
 12 34  1  0
 14 35  1  0
 15 36  1  0
 16 37  1  0
 17 38  1  0
 20 39  1  0
 21 40  1  0
 22 41  1  0
 23 42  1  0
M  END
>  <meeko>  (8) 
{"is_sidechain": false}

>  <vina_affinity_kcal_mol>  (8) 
-9.347

>  <pose_rank>  (8) 
8

$$$$

     RDKit          3D

 42 45  0  0  0  0  0  0  0  0999 V2000
  -16.0100   -2.9960   -6.9100 C   0  0  0  0  0  0  0  0  0  0  0  0
  -14.5680   -3.0400   -6.6430 N   0  0  0  0  0  0  0  0  0  0  0  0
  -14.0350   -4.3850   -6.4300 C   0  0  0  0  0  0  0  0  0  0  0  0
  -13.8640   -2.2700   -7.6110 C   0  0  0  0  0  0  0  0  0  0  0  0
  -13.9780   -2.5510   -8.9810 C   0  0  0  0  0  0  0  0  0  0  0  0
  -13.3190   -1.7720   -9.9280 C   0  0  0  0  0  0  0  0  0  0  0  0
  -12.5390   -0.6800   -9.5330 C   0  0  0  0  0  0  0  0  0  0  0  0
  -11.8420    0.0800  -10.5830 C   0  0  0  0  0  0  0  0  0  0  0  0
  -12.3700    1.0710  -11.3160 C   0  0  0  0  0  0  0  0  0  0  0  0
  -13.7710    1.6320  -11.2450 C   0  0  0  0  0  0  0  0  0  0  0  0
  -14.6960    1.2890  -10.5370 O   0  0  0  0  0  0  0  0  0  0  0  0
  -13.7940    2.6470  -12.1900 N   0  0  0  0  0  0  0  0  0  0  0  0
  -12.5690    2.7740  -12.8370 C   0  0  0  0  0  0  0  0  0  0  0  0
  -12.2460    3.6770  -13.8280 C   0  0  0  0  0  0  0  0  0  0  0  0
  -10.9470    3.6260  -14.3430 C   0  0  0  0  0  0  0  0  0  0  0  0
  -10.0190    2.6850  -13.8590 C   0  0  0  0  0  0  0  0  0  0  0  0
  -10.3700    1.7800  -12.8520 C   0  0  0  0  0  0  0  0  0  0  0  0
  -11.6560    1.8350  -12.3470 C   0  0  0  0  0  0  0  0  0  0  0  0
  -12.4010   -0.3600   -8.1570 C   0  0  0  0  0  0  0  0  0  0  0  0
  -11.6250    0.7350   -7.7000 C   0  0  0  0  0  0  0  0  0  0  0  0
  -11.4910    1.0310   -6.3430 C   0  0  0  0  0  0  0  0  0  0  0  0
  -12.1300    0.2390   -5.4030 C   0  0  0  0  0  0  0  0  0  0  0  0
  -12.9040   -0.8420   -5.8240 C   0  0  0  0  0  0  0  0  0  0  0  0
  -13.0670   -1.1650   -7.1910 C   0  0  0  0  0  0  0  0  0  0  0  0
  -16.5590   -2.9792   -5.9570 H   0  0  0  0  0  0  0  0  0  0  0  0
  -16.2487   -2.0902   -7.4866 H   0  0  0  0  0  0  0  0  0  0  0  0
  -16.3034   -3.8856   -7.4866 H   0  0  0  0  0  0  0  0  0  0  0  0
  -13.9570   -4.5818   -5.3506 H   0  0  0  0  0  0  0  0  0  0  0  0
  -14.7085   -5.1233   -6.8896 H   0  0  0  0  0  0  0  0  0  0  0  0
  -13.0386   -4.4616   -6.8896 H   0  0  0  0  0  0  0  0  0  0  0  0
  -14.5966   -3.3985   -9.3113 H   0  0  0  0  0  0  0  0  0  0  0  0
  -13.4124   -2.0173  -10.9962 H   0  0  0  0  0  0  0  0  0  0  0  0
  -10.7946   -0.1888  -10.7845 H   0  0  0  0  0  0  0  0  0  0  0  0
  -14.6160    3.2060  -12.3620 H   0  0  0  0  0  0  0  0  0  0  0  0
  -12.9803    4.4076  -14.1982 H   0  0  0  0  0  0  0  0  0  0  0  0
  -10.6473    4.3286  -15.1346 H   0  0  0  0  0  0  0  0  0  0  0  0
   -9.0026    2.6609  -14.2789 H   0  0  0  0  0  0  0  0  0  0  0  0
   -9.6440    1.0458  -12.4728 H   0  0  0  0  0  0  0  0  0  0  0  0
  -11.1130    1.3705   -8.4376 H   0  0  0  0  0  0  0  0  0  0  0  0
  -10.8814    1.8883   -6.0214 H   0  0  0  0  0  0  0  0  0  0  0  0
  -12.0275    0.4615   -4.3306 H   0  0  0  0  0  0  0  0  0  0  0  0
  -13.4044   -1.4642   -5.0674 H   0  0  0  0  0  0  0  0  0  0  0  0
  1  2  1  0
  2  3  1  0
  2  4  1  0
  4  5  2  0
  5  6  1  0
  6  7  2  0
  7  8  1  0
  8  9  2  0
  9 10  1  0
 10 11  2  0
 10 12  1  0
 12 13  1  0
 13 14  2  0
 14 15  1  0
 15 16  2  0
 16 17  1  0
 17 18  2  0
  7 19  1  0
 19 20  2  0
 20 21  1  0
 21 22  2  0
 22 23  1  0
 23 24  2  0
 24  4  1  0
 18  9  1  0
 24 19  1  0
 18 13  1  0
  1 25  1  0
  1 26  1  0
  1 27  1  0
  3 28  1  0
  3 29  1  0
  3 30  1  0
  5 31  1  0
  6 32  1  0
  8 33  1  0
 12 34  1  0
 14 35  1  0
 15 36  1  0
 16 37  1  0
 17 38  1  0
 20 39  1  0
 21 40  1  0
 22 41  1  0
 23 42  1  0
M  END
>  <meeko>  (9) 
{"is_sidechain": false}

>  <vina_affinity_kcal_mol>  (9) 
-9.262

>  <pose_rank>  (9) 
9

$$$$

     RDKit          3D

 42 45  0  0  0  0  0  0  0  0999 V2000
  -13.6620    4.4930  -15.0830 C   0  0  0  0  0  0  0  0  0  0  0  0
  -12.8380    4.3090  -13.8820 N   0  0  0  0  0  0  0  0  0  0  0  0
  -13.4660    3.5020  -12.8380 C   0  0  0  0  0  0  0  0  0  0  0  0
  -11.5260    3.8950  -14.2440 C   0  0  0  0  0  0  0  0  0  0  0  0
  -10.8560    2.8990  -13.5180 C   0  0  0  0  0  0  0  0  0  0  0  0
   -9.5880    2.4680  -13.8960 C   0  0  0  0  0  0  0  0  0  0  0  0
   -8.9580    3.0120  -15.0200 C   0  0  0  0  0  0  0  0  0  0  0  0
   -7.6030    2.5360  -15.3450 C   0  0  0  0  0  0  0  0  0  0  0  0
   -7.2770    1.2890  -15.7150 C   0  0  0  0  0  0  0  0  0  0  0  0
   -8.1950    0.1020  -15.8830 C   0  0  0  0  0  0  0  0  0  0  0  0
   -9.3930    0.0300  -15.6990 O   0  0  0  0  0  0  0  0  0  0  0  0
   -7.3660   -0.9310  -16.2980 N   0  0  0  0  0  0  0  0  0  0  0  0
   -6.0430   -0.5150  -16.4010 C   0  0  0  0  0  0  0  0  0  0  0  0
   -4.9610   -1.2820  -16.7830 C   0  0  0  0  0  0  0  0  0  0  0  0
   -3.7110   -0.6570  -16.8150 C   0  0  0  0  0  0  0  0  0  0  0  0
   -3.5770    0.7000  -16.4690 C   0  0  0  0  0  0  0  0  0  0  0  0
   -4.6890    1.4580  -16.0850 C   0  0  0  0  0  0  0  0  0  0  0  0
   -5.9230    0.8340  -16.0550 C   0  0  0  0  0  0  0  0  0  0  0  0
   -9.6020    4.0200  -15.7840 C   0  0  0  0  0  0  0  0  0  0  0  0
   -9.0130    4.6060  -16.9320 C   0  0  0  0  0  0  0  0  0  0  0  0
   -9.6550    5.6030  -17.6660 C   0  0  0  0  0  0  0  0  0  0  0  0
  -10.9070    6.0450  -17.2720 C   0  0  0  0  0  0  0  0  0  0  0  0
  -11.5140    5.4830  -16.1490 C   0  0  0  0  0  0  0  0  0  0  0  0
  -10.8940    4.4650  -15.3880 C   0  0  0  0  0  0  0  0  0  0  0  0
  -14.6958    4.7239  -14.7865 H   0  0  0  0  0  0  0  0  0  0  0  0
  -13.2581    5.3231  -15.6812 H   0  0  0  0  0  0  0  0  0  0  0  0
  -13.6495    3.5699  -15.6812 H   0  0  0  0  0  0  0  0  0  0  0  0
  -13.1685    3.8842  -11.8504 H   0  0  0  0  0  0  0  0  0  0  0  0
  -14.5599    3.5587  -12.9389 H   0  0  0  0  0  0  0  0  0  0  0  0
  -13.1423    2.4556  -12.9389 H   0  0  0  0  0  0  0  0  0  0  0  0
  -11.3400    2.4522  -12.6371 H   0  0  0  0  0  0  0  0  0  0  0  0
   -9.0769    1.6930  -13.3059 H   0  0  0  0  0  0  0  0  0  0  0  0
   -6.7852    3.2687  -15.2783 H   0  0  0  0  0  0  0  0  0  0  0  0
   -7.7140   -1.8570  -16.4920 H   0  0  0  0  0  0  0  0  0  0  0  0
   -5.0776   -2.3424  -17.0515 H   0  0  0  0  0  0  0  0  0  0  0  0
   -2.8225   -1.2325  -17.1140 H   0  0  0  0  0  0  0  0  0  0  0  0
   -2.5839    1.1720  -16.5007 H   0  0  0  0  0  0  0  0  0  0  0  0
   -4.5847    2.5192  -15.8149 H   0  0  0  0  0  0  0  0  0  0  0  0
   -8.0185    4.2638  -17.2542 H   0  0  0  0  0  0  0  0  0  0  0  0
   -9.1696    6.0360  -18.5531 H   0  0  0  0  0  0  0  0  0  0  0  0
  -11.4196    6.8345  -17.8412 H   0  0  0  0  0  0  0  0  0  0  0  0
  -12.5078    5.8435  -15.8452 H   0  0  0  0  0  0  0  0  0  0  0  0
  1  2  1  0
  2  3  1  0
  2  4  1  0
  4  5  2  0
  5  6  1  0
  6  7  2  0
  7  8  1  0
  8  9  2  0
  9 10  1  0
 10 11  2  0
 10 12  1  0
 12 13  1  0
 13 14  2  0
 14 15  1  0
 15 16  2  0
 16 17  1  0
 17 18  2  0
  7 19  1  0
 19 20  2  0
 20 21  1  0
 21 22  2  0
 22 23  1  0
 23 24  2  0
 24  4  1  0
 18  9  1  0
 24 19  1  0
 18 13  1  0
  1 25  1  0
  1 26  1  0
  1 27  1  0
  3 28  1  0
  3 29  1  0
  3 30  1  0
  5 31  1  0
  6 32  1  0
  8 33  1  0
 12 34  1  0
 14 35  1  0
 15 36  1  0
 16 37  1  0
 17 38  1  0
 20 39  1  0
 21 40  1  0
 22 41  1  0
 23 42  1  0
M  END
>  <meeko>  (10) 
{"is_sidechain": false}

>  <vina_affinity_kcal_mol>  (10) 
-8.912

>  <pose_rank>  (10) 
10

$$$$
