
     RDKit          3D

 49 52  0  0  0  0  0  0  0  0999 V2000
  -38.2340  165.8250   -8.1380 C   0  0  0  0  0  0  0  0  0  0  0  0
  -37.4900  164.6600   -7.7930 O   0  0  0  0  0  0  0  0  0  0  0  0
  -37.8540  163.9720   -6.6620 C   0  0  0  0  0  0  0  0  0  0  0  0
  -38.0430  164.5900   -5.4150 C   0  0  0  0  0  0  0  0  0  0  0  0
  -38.4080  163.8830   -4.2750 C   0  0  0  0  0  0  0  0  0  0  0  0
  -38.5680  164.5560   -3.1220 N   0  0  0  0  0  0  0  0  0  0  0  0
  -38.9380  163.8670   -2.0200 C   0  0  0  0  0  0  0  0  0  0  0  0
  -39.1480  162.5060   -2.0030 C   0  0  0  0  0  0  0  0  0  0  0  0
  -38.9550  161.8140   -3.1930 C   0  0  0  0  0  0  0  0  0  0  0  0
  -39.1860  160.4540   -3.2490 O   0  0  0  0  0  0  0  0  0  0  0  0
  -39.2250  159.7840   -2.0470 C   0  0  0  0  0  0  0  0  0  0  0  0
  -38.1970  158.8750   -1.7990 C   0  0  0  0  0  0  0  0  0  0  0  0
  -38.1530  158.1720   -0.5900 C   0  0  0  0  0  0  0  0  0  0  0  0
  -39.1240  158.3870    0.3920 C   0  0  0  0  0  0  0  0  0  0  0  0
  -39.1380  157.7050    1.6320 N   0  0  0  0  0  0  0  0  0  0  0  0
  -38.1530  157.6680    2.5950 C   0  0  0  0  0  0  0  0  0  0  0  0
  -37.0890  158.2740    2.5700 O   0  0  0  0  0  0  0  0  0  0  0  0
  -38.5240  156.8470    3.6490 N   0  0  0  0  0  0  0  0  0  0  0  0
  -37.6480  156.6080    4.7560 C   0  0  0  0  0  0  0  0  0  0  0  0
  -36.6160  155.5160    4.6940 C   0  0  0  0  0  0  0  0  0  0  0  0
  -37.8030  155.3730    5.6010 C   0  0  0  0  0  0  0  0  0  0  0  0
  -40.1440  159.3240    0.1320 C   0  0  0  0  0  0  0  0  0  0  0  0
  -41.3780  159.6420    1.3070 Cl  0  0  0  0  0  0  0  0  0  0  0  0
  -40.1940  160.0260   -1.0750 C   0  0  0  0  0  0  0  0  0  0  0  0
  -38.5950  162.4950   -4.3730 C   0  0  0  0  0  0  0  0  0  0  0  0
  -38.4110  161.8590   -5.6190 C   0  0  0  0  0  0  0  0  0  0  0  0
  -38.0420  162.5820   -6.7650 C   0  0  0  0  0  0  0  0  0  0  0  0
  -37.8770  161.7820   -8.0210 C   0  0  0  0  0  0  0  0  0  0  0  0
  -38.4170  162.2630   -9.1760 N   0  0  0  0  0  0  0  0  0  0  0  0
  -37.2710  160.7160   -8.0270 O   0  0  0  0  0  0  0  0  0  0  0  0
  -38.5606  166.3365   -7.2206 H   0  0  0  0  0  0  0  0  0  0  0  0
  -37.6009  166.5024   -8.7299 H   0  0  0  0  0  0  0  0  0  0  0  0
  -39.1148  165.5356   -8.7299 H   0  0  0  0  0  0  0  0  0  0  0  0
  -37.8963  165.6774   -5.3372 H   0  0  0  0  0  0  0  0  0  0  0  0
  -39.0796  164.4252   -1.0828 H   0  0  0  0  0  0  0  0  0  0  0  0
  -39.4564  161.9868   -1.0836 H   0  0  0  0  0  0  0  0  0  0  0  0
  -37.4173  158.7099   -2.5571 H   0  0  0  0  0  0  0  0  0  0  0  0
  -37.3478  157.4443   -0.4110 H   0  0  0  0  0  0  0  0  0  0  0  0
  -40.0250  157.2870    1.8790 H   0  0  0  0  0  0  0  0  0  0  0  0
  -39.2190  156.1430    3.4510 H   0  0  0  0  0  0  0  0  0  0  0  0
  -37.6256  157.6898    4.9541 H   0  0  0  0  0  0  0  0  0  0  0  0
  -36.5329  154.8886    3.7943 H   0  0  0  0  0  0  0  0  0  0  0  0
  -35.5252  155.4689    4.8281 H   0  0  0  0  0  0  0  0  0  0  0  0
  -38.5897  154.6410    5.3658 H   0  0  0  0  0  0  0  0  0  0  0  0
  -37.9421  155.1779    6.6746 H   0  0  0  0  0  0  0  0  0  0  0  0
  -40.9906  160.7626   -1.2563 H   0  0  0  0  0  0  0  0  0  0  0  0
  -38.5600  160.7718   -5.6945 H   0  0  0  0  0  0  0  0  0  0  0  0
  -38.8890  163.1590   -9.2080 H   0  0  0  0  0  0  0  0  0  0  0  0
  -38.2830  161.7370  -10.0270 H   0  0  0  0  0  0  0  0  0  0  0  0
  1  2  1  0
  2  3  1  0
  3  4  1  0
  4  5  2  0
  5  6  1  0
  6  7  2  0
  7  8  1  0
  8  9  2  0
  9 10  1  0
 10 11  1  0
 11 12  1  0
 12 13  2  0
 13 14  1  0
 14 15  1  0
 15 16  1  0
 16 17  2  0
 16 18  1  0
 18 19  1  0
 19 20  1  0
 20 21  1  0
 14 22  2  0
 22 23  1  0
 22 24  1  0
  9 25  1  0
 25 26  2  0
 26 27  1  0
 27 28  1  0
 28 29  1  0
 28 30  2  0
 27  3  2  0
 25  5  1  0
 24 11  2  0
 21 19  1  0
  1 31  1  0
  1 32  1  0
  1 33  1  0
  4 34  1  0
  7 35  1  0
  8 36  1  0
 12 37  1  0
 13 38  1  0
 15 39  1  0
 18 40  1  0
 19 41  1  0
 20 42  1  0
 20 43  1  0
 21 44  1  0
 21 45  1  0
 24 46  1  0
 26 47  1  0
 29 48  1  0
 29 49  1  0
M  END
>  <meeko>  (1) 
{"is_sidechain": false}

>  <vina_affinity_kcal_mol>  (1) 
-10.353

>  <pose_rank>  (1) 
1

$$$$

     RDKit          3D

 49 52  0  0  0  0  0  0  0  0999 V2000
  -37.9630  165.7780   -9.5900 C   0  0  0  0  0  0  0  0  0  0  0  0
  -37.2310  164.7140   -8.9890 O   0  0  0  0  0  0  0  0  0  0  0  0
  -37.6970  164.1960   -7.8060 C   0  0  0  0  0  0  0  0  0  0  0  0
  -37.8710  164.9680   -6.6460 C   0  0  0  0  0  0  0  0  0  0  0  0
  -38.3410  164.4320   -5.4520 C   0  0  0  0  0  0  0  0  0  0  0  0
  -38.4770  165.2450   -4.3900 N   0  0  0  0  0  0  0  0  0  0  0  0
  -38.9490  164.7230   -3.2360 C   0  0  0  0  0  0  0  0  0  0  0  0
  -39.2850  163.3980   -3.0770 C   0  0  0  0  0  0  0  0  0  0  0  0
  -39.1150  162.5580   -4.1720 C   0  0  0  0  0  0  0  0  0  0  0  0
  -39.4700  161.2270   -4.0870 O   0  0  0  0  0  0  0  0  0  0  0  0
  -39.0900  160.5580   -2.9450 C   0  0  0  0  0  0  0  0  0  0  0  0
  -38.6680  159.2370   -3.1000 C   0  0  0  0  0  0  0  0  0  0  0  0
  -38.2420  158.4980   -1.9910 C   0  0  0  0  0  0  0  0  0  0  0  0
  -38.2130  159.0780   -0.7200 C   0  0  0  0  0  0  0  0  0  0  0  0
  -37.7980  158.3820    0.4400 N   0  0  0  0  0  0  0  0  0  0  0  0
  -38.5590  158.0030    1.5250 C   0  0  0  0  0  0  0  0  0  0  0  0
  -39.7660  158.1580    1.6550 O   0  0  0  0  0  0  0  0  0  0  0  0
  -37.7750  157.3830    2.4850 N   0  0  0  0  0  0  0  0  0  0  0  0
  -38.3270  156.9370    3.7290 C   0  0  0  0  0  0  0  0  0  0  0  0
  -37.5380  157.0570    5.0040 C   0  0  0  0  0  0  0  0  0  0  0  0
  -37.7910  155.7050    4.4060 C   0  0  0  0  0  0  0  0  0  0  0  0
  -38.6220  160.4190   -0.5860 C   0  0  0  0  0  0  0  0  0  0  0  0
  -38.6080  161.2020    0.9610 Cl  0  0  0  0  0  0  0  0  0  0  0  0
  -39.0520  161.1610   -1.6890 C   0  0  0  0  0  0  0  0  0  0  0  0
  -38.6530  163.0640   -5.4030 C   0  0  0  0  0  0  0  0  0  0  0  0
  -38.4840  162.2750   -6.5600 C   0  0  0  0  0  0  0  0  0  0  0  0
  -38.0100  162.8260   -7.7620 C   0  0  0  0  0  0  0  0  0  0  0  0
  -37.8750  161.8750   -8.9120 C   0  0  0  0  0  0  0  0  0  0  0  0
  -38.5900  162.1190  -10.0470 N   0  0  0  0  0  0  0  0  0  0  0  0
  -37.1430  160.8940   -8.8500 O   0  0  0  0  0  0  0  0  0  0  0  0
  -38.3994  166.4124   -8.8044 H   0  0  0  0  0  0  0  0  0  0  0  0
  -37.2875  166.3807  -10.2148 H   0  0  0  0  0  0  0  0  0  0  0  0
  -38.7674  165.3626  -10.2148 H   0  0  0  0  0  0  0  0  0  0  0  0
  -37.6257  166.0397   -6.6833 H   0  0  0  0  0  0  0  0  0  0  0  0
  -39.0716  165.3959   -2.3745 H   0  0  0  0  0  0  0  0  0  0  0  0
  -39.6731  163.0180   -2.1205 H   0  0  0  0  0  0  0  0  0  0  0  0
  -38.6703  158.7748   -4.0982 H   0  0  0  0  0  0  0  0  0  0  0  0
  -37.9274  157.4520   -2.1206 H   0  0  0  0  0  0  0  0  0  0  0  0
  -36.8500  158.0310    0.4110 H   0  0  0  0  0  0  0  0  0  0  0  0
  -36.7880  157.5930    2.4690 H   0  0  0  0  0  0  0  0  0  0  0  0
  -39.3193  157.2722    3.3928 H   0  0  0  0  0  0  0  0  0  0  0  0
  -36.5251  157.4855    4.9853 H   0  0  0  0  0  0  0  0  0  0  0  0
  -37.7151  157.5175    5.9872 H   0  0  0  0  0  0  0  0  0  0  0  0
  -36.9636  155.1425    3.9489 H   0  0  0  0  0  0  0  0  0  0  0  0
  -38.2304  154.7643    4.7693 H   0  0  0  0  0  0  0  0  0  0  0  0
  -39.3575  162.2107   -1.5673 H   0  0  0  0  0  0  0  0  0  0  0  0
  -38.7291  161.2034   -6.5200 H   0  0  0  0  0  0  0  0  0  0  0  0
  -39.1730  162.9420  -10.1390 H   0  0  0  0  0  0  0  0  0  0  0  0
  -38.4790  161.4920  -10.8310 H   0  0  0  0  0  0  0  0  0  0  0  0
  1  2  1  0
  2  3  1  0
  3  4  1  0
  4  5  2  0
  5  6  1  0
  6  7  2  0
  7  8  1  0
  8  9  2  0
  9 10  1  0
 10 11  1  0
 11 12  1  0
 12 13  2  0
 13 14  1  0
 14 15  1  0
 15 16  1  0
 16 17  2  0
 16 18  1  0
 18 19  1  0
 19 20  1  0
 20 21  1  0
 14 22  2  0
 22 23  1  0
 22 24  1  0
  9 25  1  0
 25 26  2  0
 26 27  1  0
 27 28  1  0
 28 29  1  0
 28 30  2  0
 27  3  2  0
 25  5  1  0
 24 11  2  0
 21 19  1  0
  1 31  1  0
  1 32  1  0
  1 33  1  0
  4 34  1  0
  7 35  1  0
  8 36  1  0
 12 37  1  0
 13 38  1  0
 15 39  1  0
 18 40  1  0
 19 41  1  0
 20 42  1  0
 20 43  1  0
 21 44  1  0
 21 45  1  0
 24 46  1  0
 26 47  1  0
 29 48  1  0
 29 49  1  0
M  END
>  <meeko>  (2) 
{"is_sidechain": false}

>  <vina_affinity_kcal_mol>  (2) 
-8.991

>  <pose_rank>  (2) 
2

$$$$

     RDKit          3D

 49 52  0  0  0  0  0  0  0  0999 V2000
  -33.8270  152.2740    6.4900 C   0  0  0  0  0  0  0  0  0  0  0  0
  -35.1010  152.6760    6.9830 O   0  0  0  0  0  0  0  0  0  0  0  0
  -35.7090  153.7590    6.3960 C   0  0  0  0  0  0  0  0  0  0  0  0
  -35.2170  155.0690    6.5080 C   0  0  0  0  0  0  0  0  0  0  0  0
  -35.8430  156.1590    5.9120 C   0  0  0  0  0  0  0  0  0  0  0  0
  -35.3020  157.3790    6.0710 N   0  0  0  0  0  0  0  0  0  0  0  0
  -35.9050  158.4330    5.4780 C   0  0  0  0  0  0  0  0  0  0  0  0
  -37.0550  158.3340    4.7270 C   0  0  0  0  0  0  0  0  0  0  0  0
  -37.6220  157.0720    4.5900 C   0  0  0  0  0  0  0  0  0  0  0  0
  -38.7550  156.9010    3.8190 O   0  0  0  0  0  0  0  0  0  0  0  0
  -38.9180  157.7660    2.7600 C   0  0  0  0  0  0  0  0  0  0  0  0
  -37.8170  157.9510    1.9230 C   0  0  0  0  0  0  0  0  0  0  0  0
  -37.9100  158.7950    0.8110 C   0  0  0  0  0  0  0  0  0  0  0  0
  -39.1110  159.4460    0.5130 C   0  0  0  0  0  0  0  0  0  0  0  0
  -39.2680  160.3160   -0.5930 N   0  0  0  0  0  0  0  0  0  0  0  0
  -39.1020  160.0310   -1.9310 C   0  0  0  0  0  0  0  0  0  0  0  0
  -38.8360  158.9380   -2.4140 O   0  0  0  0  0  0  0  0  0  0  0  0
  -39.2980  161.1650   -2.7040 N   0  0  0  0  0  0  0  0  0  0  0  0
  -39.1390  161.1380   -4.1270 C   0  0  0  0  0  0  0  0  0  0  0  0
  -37.7990  161.4110   -4.7520 C   0  0  0  0  0  0  0  0  0  0  0  0
  -38.9090  162.4100   -4.8960 C   0  0  0  0  0  0  0  0  0  0  0  0
  -40.2180  159.2310    1.3570 C   0  0  0  0  0  0  0  0  0  0  0  0
  -41.7370  160.0040    1.0440 Cl  0  0  0  0  0  0  0  0  0  0  0  0
  -40.1290  158.3920    2.4710 C   0  0  0  0  0  0  0  0  0  0  0  0
  -37.0140  155.9410    5.1690 C   0  0  0  0  0  0  0  0  0  0  0  0
  -37.5200  154.6300    5.0460 C   0  0  0  0  0  0  0  0  0  0  0  0
  -36.8800  153.5350    5.6510 C   0  0  0  0  0  0  0  0  0  0  0  0
  -37.5260  152.2000    5.4430 C   0  0  0  0  0  0  0  0  0  0  0  0
  -36.8010  151.2110    4.8490 N   0  0  0  0  0  0  0  0  0  0  0  0
  -38.6820  151.9850    5.7930 O   0  0  0  0  0  0  0  0  0  0  0  0
  -33.1565  152.0624    7.3360 H   0  0  0  0  0  0  0  0  0  0  0  0
  -33.9404  151.3680    5.8766 H   0  0  0  0  0  0  0  0  0  0  0  0
  -33.3999  153.0810    5.8766 H   0  0  0  0  0  0  0  0  0  0  0  0
  -34.2997  155.2405    7.0904 H   0  0  0  0  0  0  0  0  0  0  0  0
  -35.4511  159.4272    5.6024 H   0  0  0  0  0  0  0  0  0  0  0  0
  -37.5071  159.2184    4.2542 H   0  0  0  0  0  0  0  0  0  0  0  0
  -36.8719  157.4311    2.1384 H   0  0  0  0  0  0  0  0  0  0  0  0
  -37.0318  158.9475    0.1664 H   0  0  0  0  0  0  0  0  0  0  0  0
  -39.6530  161.2240   -0.3700 H   0  0  0  0  0  0  0  0  0  0  0  0
  -39.1750  162.0540   -2.2440 H   0  0  0  0  0  0  0  0  0  0  0  0
  -39.8704  160.3180   -4.1793 H   0  0  0  0  0  0  0  0  0  0  0  0
  -36.9319  161.6406   -4.1152 H   0  0  0  0  0  0  0  0  0  0  0  0
  -37.1431  160.8717   -5.4513 H   0  0  0  0  0  0  0  0  0  0  0  0
  -38.8556  163.3717   -4.3647 H   0  0  0  0  0  0  0  0  0  0  0  0
  -39.4035  162.9059   -5.7443 H   0  0  0  0  0  0  0  0  0  0  0  0
  -41.0065  158.2273    3.1136 H   0  0  0  0  0  0  0  0  0  0  0  0
  -38.4372  154.4609    4.4628 H   0  0  0  0  0  0  0  0  0  0  0  0
  -35.8330  151.3480    4.5850 H   0  0  0  0  0  0  0  0  0  0  0  0
  -37.2280  150.3030    4.7320 H   0  0  0  0  0  0  0  0  0  0  0  0
  1  2  1  0
  2  3  1  0
  3  4  1  0
  4  5  2  0
  5  6  1  0
  6  7  2  0
  7  8  1  0
  8  9  2  0
  9 10  1  0
 10 11  1  0
 11 12  1  0
 12 13  2  0
 13 14  1  0
 14 15  1  0
 15 16  1  0
 16 17  2  0
 16 18  1  0
 18 19  1  0
 19 20  1  0
 20 21  1  0
 14 22  2  0
 22 23  1  0
 22 24  1  0
  9 25  1  0
 25 26  2  0
 26 27  1  0
 27 28  1  0
 28 29  1  0
 28 30  2  0
 27  3  2  0
 25  5  1  0
 24 11  2  0
 21 19  1  0
  1 31  1  0
  1 32  1  0
  1 33  1  0
  4 34  1  0
  7 35  1  0
  8 36  1  0
 12 37  1  0
 13 38  1  0
 15 39  1  0
 18 40  1  0
 19 41  1  0
 20 42  1  0
 20 43  1  0
 21 44  1  0
 21 45  1  0
 24 46  1  0
 26 47  1  0
 29 48  1  0
 29 49  1  0
M  END
>  <meeko>  (3) 
{"is_sidechain": false}

>  <vina_affinity_kcal_mol>  (3) 
-8.857

>  <pose_rank>  (3) 
3

$$$$

     RDKit          3D

 49 52  0  0  0  0  0  0  0  0999 V2000
  -38.1340  156.9970  -12.0400 C   0  0  0  0  0  0  0  0  0  0  0  0
  -37.0450  157.9080  -12.1430 O   0  0  0  0  0  0  0  0  0  0  0  0
  -37.0770  159.0450  -11.3730 C   0  0  0  0  0  0  0  0  0  0  0  0
  -37.8070  160.1910  -11.7260 C   0  0  0  0  0  0  0  0  0  0  0  0
  -37.8300  161.3370  -10.9400 C   0  0  0  0  0  0  0  0  0  0  0  0
  -38.5570  162.3890  -11.3540 N   0  0  0  0  0  0  0  0  0  0  0  0
  -38.5890  163.4960  -10.5790 C   0  0  0  0  0  0  0  0  0  0  0  0
  -37.9050  163.6180   -9.3900 C   0  0  0  0  0  0  0  0  0  0  0  0
  -37.1330  162.5350   -8.9830 C   0  0  0  0  0  0  0  0  0  0  0  0
  -36.4530  162.5820   -7.7820 O   0  0  0  0  0  0  0  0  0  0  0  0
  -37.2160  162.5210   -6.6370 C   0  0  0  0  0  0  0  0  0  0  0  0
  -37.8380  161.3050   -6.3590 C   0  0  0  0  0  0  0  0  0  0  0  0
  -38.6100  161.1550   -5.2020 C   0  0  0  0  0  0  0  0  0  0  0  0
  -38.7500  162.2140   -4.3010 C   0  0  0  0  0  0  0  0  0  0  0  0
  -39.5200  162.1280   -3.1160 N   0  0  0  0  0  0  0  0  0  0  0  0
  -39.3470  161.2770   -2.0460 C   0  0  0  0  0  0  0  0  0  0  0  0
  -38.4440  160.4620   -1.9050 O   0  0  0  0  0  0  0  0  0  0  0  0
  -40.3400  161.4670   -1.0980 N   0  0  0  0  0  0  0  0  0  0  0  0
  -40.4050  160.6690    0.0890 C   0  0  0  0  0  0  0  0  0  0  0  0
  -40.6640  159.1900    0.0040 C   0  0  0  0  0  0  0  0  0  0  0  0
  -41.7170  160.1030    0.5600 C   0  0  0  0  0  0  0  0  0  0  0  0
  -38.0970  163.4290   -4.5870 C   0  0  0  0  0  0  0  0  0  0  0  0
  -38.2250  164.7820   -3.5110 Cl  0  0  0  0  0  0  0  0  0  0  0  0
  -37.3280  163.5840   -5.7430 C   0  0  0  0  0  0  0  0  0  0  0  0
  -37.0920  161.3510   -9.7450 C   0  0  0  0  0  0  0  0  0  0  0  0
  -36.3540  160.2070   -9.3760 C   0  0  0  0  0  0  0  0  0  0  0  0
  -36.3380  159.0530  -10.1770 C   0  0  0  0  0  0  0  0  0  0  0  0
  -35.5100  157.9120   -9.6680 C   0  0  0  0  0  0  0  0  0  0  0  0
  -34.3380  157.6250  -10.3010 N   0  0  0  0  0  0  0  0  0  0  0  0
  -35.8650  157.2420   -8.7050 O   0  0  0  0  0  0  0  0  0  0  0  0
  -38.3569  156.8105  -10.9791 H   0  0  0  0  0  0  0  0  0  0  0  0
  -39.0196  157.4271  -12.5307 H   0  0  0  0  0  0  0  0  0  0  0  0
  -37.8670  156.0494  -12.5307 H   0  0  0  0  0  0  0  0  0  0  0  0
  -38.3841  160.1815  -12.6624 H   0  0  0  0  0  0  0  0  0  0  0  0
  -39.1963  164.3484  -10.9175 H   0  0  0  0  0  0  0  0  0  0  0  0
  -37.9667  164.5354   -8.7862 H   0  0  0  0  0  0  0  0  0  0  0  0
  -37.7213  160.4593   -7.0526 H   0  0  0  0  0  0  0  0  0  0  0  0
  -39.1105  160.1965   -5.0000 H   0  0  0  0  0  0  0  0  0  0  0  0
  -40.2130  162.8570   -3.0030 H   0  0  0  0  0  0  0  0  0  0  0  0
  -41.2010  161.8820   -1.4210 H   0  0  0  0  0  0  0  0  0  0  0  0
  -39.6220  161.2979    0.5378 H   0  0  0  0  0  0  0  0  0  0  0  0
  -40.8116  158.7132   -0.9762 H   0  0  0  0  0  0  0  0  0  0  0  0
  -40.1474  158.2885    0.3651 H   0  0  0  0  0  0  0  0  0  0  0  0
  -42.6362  160.2954   -0.0128 H   0  0  0  0  0  0  0  0  0  0  0  0
  -42.2914  160.1476    1.4971 H   0  0  0  0  0  0  0  0  0  0  0  0
  -36.8158  164.5361   -5.9456 H   0  0  0  0  0  0  0  0  0  0  0  0
  -35.7776  160.2187   -8.4392 H   0  0  0  0  0  0  0  0  0  0  0  0
  -34.0020  158.1860  -11.0750 H   0  0  0  0  0  0  0  0  0  0  0  0
  -33.7680  156.8730   -9.9420 H   0  0  0  0  0  0  0  0  0  0  0  0
  1  2  1  0
  2  3  1  0
  3  4  1  0
  4  5  2  0
  5  6  1  0
  6  7  2  0
  7  8  1  0
  8  9  2  0
  9 10  1  0
 10 11  1  0
 11 12  1  0
 12 13  2  0
 13 14  1  0
 14 15  1  0
 15 16  1  0
 16 17  2  0
 16 18  1  0
 18 19  1  0
 19 20  1  0
 20 21  1  0
 14 22  2  0
 22 23  1  0
 22 24  1  0
  9 25  1  0
 25 26  2  0
 26 27  1  0
 27 28  1  0
 28 29  1  0
 28 30  2  0
 27  3  2  0
 25  5  1  0
 24 11  2  0
 21 19  1  0
  1 31  1  0
  1 32  1  0
  1 33  1  0
  4 34  1  0
  7 35  1  0
  8 36  1  0
 12 37  1  0
 13 38  1  0
 15 39  1  0
 18 40  1  0
 19 41  1  0
 20 42  1  0
 20 43  1  0
 21 44  1  0
 21 45  1  0
 24 46  1  0
 26 47  1  0
 29 48  1  0
 29 49  1  0
M  END
>  <meeko>  (4) 
{"is_sidechain": false}

>  <vina_affinity_kcal_mol>  (4) 
-8.822

>  <pose_rank>  (4) 
4

$$$$

     RDKit          3D

 49 52  0  0  0  0  0  0  0  0999 V2000
  -38.1590  147.3230    3.9430 C   0  0  0  0  0  0  0  0  0  0  0  0
  -38.2980  147.7840    5.2830 O   0  0  0  0  0  0  0  0  0  0  0  0
  -37.7940  149.0230    5.5960 C   0  0  0  0  0  0  0  0  0  0  0  0
  -36.4210  149.3130    5.6020 C   0  0  0  0  0  0  0  0  0  0  0  0
  -35.9210  150.5700    5.9240 C   0  0  0  0  0  0  0  0  0  0  0  0
  -34.5900  150.7600    5.9030 N   0  0  0  0  0  0  0  0  0  0  0  0
  -34.1100  151.9870    6.2010 C   0  0  0  0  0  0  0  0  0  0  0  0
  -34.9050  153.0580    6.5420 C   0  0  0  0  0  0  0  0  0  0  0  0
  -36.2790  152.8460    6.5870 C   0  0  0  0  0  0  0  0  0  0  0  0
  -37.1310  153.8900    6.8860 O   0  0  0  0  0  0  0  0  0  0  0  0
  -37.2300  154.8950    5.9500 C   0  0  0  0  0  0  0  0  0  0  0  0
  -37.6860  154.5330    4.6830 C   0  0  0  0  0  0  0  0  0  0  0  0
  -37.8370  155.5010    3.6840 C   0  0  0  0  0  0  0  0  0  0  0  0
  -37.5540  156.8430    3.9480 C   0  0  0  0  0  0  0  0  0  0  0  0
  -37.6820  157.8680    2.9800 N   0  0  0  0  0  0  0  0  0  0  0  0
  -38.8370  158.4250    2.4750 C   0  0  0  0  0  0  0  0  0  0  0  0
  -39.9820  158.1610    2.8210 O   0  0  0  0  0  0  0  0  0  0  0  0
  -38.5460  159.3700    1.5040 N   0  0  0  0  0  0  0  0  0  0  0  0
  -39.5820  160.0590    0.7950 C   0  0  0  0  0  0  0  0  0  0  0  0
  -40.1220  159.5090   -0.4960 C   0  0  0  0  0  0  0  0  0  0  0  0
  -39.2870  160.7550   -0.5050 C   0  0  0  0  0  0  0  0  0  0  0  0
  -37.1140  157.1950    5.2400 C   0  0  0  0  0  0  0  0  0  0  0  0
  -36.7490  158.8420    5.6370 Cl  0  0  0  0  0  0  0  0  0  0  0  0
  -36.9580  156.2310    6.2400 C   0  0  0  0  0  0  0  0  0  0  0  0
  -36.8260  151.5900    6.2570 C   0  0  0  0  0  0  0  0  0  0  0  0
  -38.2090  151.3150    6.2560 C   0  0  0  0  0  0  0  0  0  0  0  0
  -38.7040  150.0420    5.9280 C   0  0  0  0  0  0  0  0  0  0  0  0
  -40.1940  149.8860    5.9680 C   0  0  0  0  0  0  0  0  0  0  0  0
  -40.8800  149.8770    4.7910 N   0  0  0  0  0  0  0  0  0  0  0  0
  -40.7970  149.7690    7.0290 O   0  0  0  0  0  0  0  0  0  0  0  0
  -37.8415  146.2698    3.9486 H   0  0  0  0  0  0  0  0  0  0  0  0
  -39.1240  147.4122    3.4226 H   0  0  0  0  0  0  0  0  0  0  0  0
  -37.4042  147.9308    3.4226 H   0  0  0  0  0  0  0  0  0  0  0  0
  -35.7116  148.5137    5.3415 H   0  0  0  0  0  0  0  0  0  0  0  0
  -33.0210  152.1392    6.1694 H   0  0  0  0  0  0  0  0  0  0  0  0
  -34.4707  154.0426    6.7699 H   0  0  0  0  0  0  0  0  0  0  0  0
  -37.9281  153.4818    4.4679 H   0  0  0  0  0  0  0  0  0  0  0  0
  -38.1813  155.2027    2.6828 H   0  0  0  0  0  0  0  0  0  0  0  0
  -36.8140  158.3140    2.7130 H   0  0  0  0  0  0  0  0  0  0  0  0
  -37.6510  159.2870    1.0460 H   0  0  0  0  0  0  0  0  0  0  0  0
  -40.0213  160.3601    1.7575 H   0  0  0  0  0  0  0  0  0  0  0  0
  -39.7167  158.5726   -0.9069 H   0  0  0  0  0  0  0  0  0  0  0  0
  -41.1214  159.2404   -0.8688 H   0  0  0  0  0  0  0  0  0  0  0  0
  -38.2695  160.7320   -0.9224 H   0  0  0  0  0  0  0  0  0  0  0  0
  -39.4209  161.7778   -0.8871 H   0  0  0  0  0  0  0  0  0  0  0  0
  -36.6238  156.5238    7.2462 H   0  0  0  0  0  0  0  0  0  0  0  0
  -38.9164  152.1156    6.5180 H   0  0  0  0  0  0  0  0  0  0  0  0
  -40.4040  149.9330    3.8990 H   0  0  0  0  0  0  0  0  0  0  0  0
  -41.8810  149.7460    4.8180 H   0  0  0  0  0  0  0  0  0  0  0  0
  1  2  1  0
  2  3  1  0
  3  4  1  0
  4  5  2  0
  5  6  1  0
  6  7  2  0
  7  8  1  0
  8  9  2  0
  9 10  1  0
 10 11  1  0
 11 12  1  0
 12 13  2  0
 13 14  1  0
 14 15  1  0
 15 16  1  0
 16 17  2  0
 16 18  1  0
 18 19  1  0
 19 20  1  0
 20 21  1  0
 14 22  2  0
 22 23  1  0
 22 24  1  0
  9 25  1  0
 25 26  2  0
 26 27  1  0
 27 28  1  0
 28 29  1  0
 28 30  2  0
 27  3  2  0
 25  5  1  0
 24 11  2  0
 21 19  1  0
  1 31  1  0
  1 32  1  0
  1 33  1  0
  4 34  1  0
  7 35  1  0
  8 36  1  0
 12 37  1  0
 13 38  1  0
 15 39  1  0
 18 40  1  0
 19 41  1  0
 20 42  1  0
 20 43  1  0
 21 44  1  0
 21 45  1  0
 24 46  1  0
 26 47  1  0
 29 48  1  0
 29 49  1  0
M  END
>  <meeko>  (5) 
{"is_sidechain": false}

>  <vina_affinity_kcal_mol>  (5) 
-8.74

>  <pose_rank>  (5) 
5

$$$$

     RDKit          3D

 49 52  0  0  0  0  0  0  0  0999 V2000
  -35.4040  152.1630    7.3610 C   0  0  0  0  0  0  0  0  0  0  0  0
  -35.5020  152.3290    5.9500 O   0  0  0  0  0  0  0  0  0  0  0  0
  -35.9740  153.5260    5.4710 C   0  0  0  0  0  0  0  0  0  0  0  0
  -35.2280  154.7150    5.5070 C   0  0  0  0  0  0  0  0  0  0  0  0
  -35.7170  155.9230    5.0220 C   0  0  0  0  0  0  0  0  0  0  0  0
  -34.9340  157.0130    5.0970 N   0  0  0  0  0  0  0  0  0  0  0  0
  -35.4070  158.1810    4.6100 C   0  0  0  0  0  0  0  0  0  0  0  0
  -36.6570  158.3270    4.0520 C   0  0  0  0  0  0  0  0  0  0  0  0
  -37.4720  157.2000    4.0030 C   0  0  0  0  0  0  0  0  0  0  0  0
  -38.7220  157.2740    3.4220 O   0  0  0  0  0  0  0  0  0  0  0  0
  -38.8420  158.0810    2.3130 C   0  0  0  0  0  0  0  0  0  0  0  0
  -39.4300  159.3310    2.5060 C   0  0  0  0  0  0  0  0  0  0  0  0
  -39.5660  160.2200    1.4330 C   0  0  0  0  0  0  0  0  0  0  0  0
  -39.0950  159.8760    0.1630 C   0  0  0  0  0  0  0  0  0  0  0  0
  -39.2060  160.7280   -0.9620 N   0  0  0  0  0  0  0  0  0  0  0  0
  -38.9130  162.0720   -1.0460 C   0  0  0  0  0  0  0  0  0  0  0  0
  -38.4450  162.7710   -0.1560 O   0  0  0  0  0  0  0  0  0  0  0  0
  -39.2030  162.5620   -2.3100 N   0  0  0  0  0  0  0  0  0  0  0  0
  -39.0270  163.9450   -2.6350 C   0  0  0  0  0  0  0  0  0  0  0  0
  -39.4090  164.4670   -3.9930 C   0  0  0  0  0  0  0  0  0  0  0  0
  -37.9620  164.3730   -3.6080 C   0  0  0  0  0  0  0  0  0  0  0  0
  -38.4840  158.6180   -0.0080 C   0  0  0  0  0  0  0  0  0  0  0  0
  -37.8750  158.1300   -1.5550 Cl  0  0  0  0  0  0  0  0  0  0  0  0
  -38.3490  157.7260    1.0590 C   0  0  0  0  0  0  0  0  0  0  0  0
  -37.0090  155.9560    4.4740 C   0  0  0  0  0  0  0  0  0  0  0  0
  -37.7720  154.7700    4.4290 C   0  0  0  0  0  0  0  0  0  0  0  0
  -37.2680  153.5540    4.9210 C   0  0  0  0  0  0  0  0  0  0  0  0
  -38.1840  152.3730    4.8140 C   0  0  0  0  0  0  0  0  0  0  0  0
  -38.5680  151.9570    3.5750 N   0  0  0  0  0  0  0  0  0  0  0  0
  -38.5870  151.7820    5.8100 O   0  0  0  0  0  0  0  0  0  0  0  0
  -35.9011  153.0051    7.8647 H   0  0  0  0  0  0  0  0  0  0  0  0
  -35.8910  151.2212    7.6541 H   0  0  0  0  0  0  0  0  0  0  0  0
  -34.3442  152.1344    7.6541 H   0  0  0  0  0  0  0  0  0  0  0  0
  -34.2156  154.6899    5.9363 H   0  0  0  0  0  0  0  0  0  0  0  0
  -34.7560  159.0661    4.6623 H   0  0  0  0  0  0  0  0  0  0  0  0
  -36.9983  159.2965    3.6602 H   0  0  0  0  0  0  0  0  0  0  0  0
  -39.7883  159.6195    3.5052 H   0  0  0  0  0  0  0  0  0  0  0  0
  -40.0472  161.1965    1.5908 H   0  0  0  0  0  0  0  0  0  0  0  0
  -39.4240  160.2600   -1.8320 H   0  0  0  0  0  0  0  0  0  0  0  0
  -39.8760  162.0430   -2.8530 H   0  0  0  0  0  0  0  0  0  0  0  0
  -39.2863  164.2072   -1.5987 H   0  0  0  0  0  0  0  0  0  0  0  0
  -39.8223  163.7827   -4.7486 H   0  0  0  0  0  0  0  0  0  0  0  0
  -40.0648  165.2699   -4.3607 H   0  0  0  0  0  0  0  0  0  0  0  0
  -37.3150  163.6198   -4.0813 H   0  0  0  0  0  0  0  0  0  0  0  0
  -37.1185  165.0784   -3.5767 H   0  0  0  0  0  0  0  0  0  0  0  0
  -37.8582  156.7528    0.9105 H   0  0  0  0  0  0  0  0  0  0  0  0
  -38.7841  154.7979    3.9991 H   0  0  0  0  0  0  0  0  0  0  0  0
  -38.2200  152.4020    2.7340 H   0  0  0  0  0  0  0  0  0  0  0  0
  -39.1650  151.1450    3.5020 H   0  0  0  0  0  0  0  0  0  0  0  0
  1  2  1  0
  2  3  1  0
  3  4  1  0
  4  5  2  0
  5  6  1  0
  6  7  2  0
  7  8  1  0
  8  9  2  0
  9 10  1  0
 10 11  1  0
 11 12  1  0
 12 13  2  0
 13 14  1  0
 14 15  1  0
 15 16  1  0
 16 17  2  0
 16 18  1  0
 18 19  1  0
 19 20  1  0
 20 21  1  0
 14 22  2  0
 22 23  1  0
 22 24  1  0
  9 25  1  0
 25 26  2  0
 26 27  1  0
 27 28  1  0
 28 29  1  0
 28 30  2  0
 27  3  2  0
 25  5  1  0
 24 11  2  0
 21 19  1  0
  1 31  1  0
  1 32  1  0
  1 33  1  0
  4 34  1  0
  7 35  1  0
  8 36  1  0
 12 37  1  0
 13 38  1  0
 15 39  1  0
 18 40  1  0
 19 41  1  0
 20 42  1  0
 20 43  1  0
 21 44  1  0
 21 45  1  0
 24 46  1  0
 26 47  1  0
 29 48  1  0
 29 49  1  0
M  END
>  <meeko>  (6) 
{"is_sidechain": false}

>  <vina_affinity_kcal_mol>  (6) 
-8.714

>  <pose_rank>  (6) 
6

$$$$

     RDKit          3D

 49 52  0  0  0  0  0  0  0  0999 V2000
  -35.0280  165.8550  -12.1290 C   0  0  0  0  0  0  0  0  0  0  0  0
  -36.2810  165.1880  -12.0060 O   0  0  0  0  0  0  0  0  0  0  0  0
  -36.6030  164.6380  -10.7900 C   0  0  0  0  0  0  0  0  0  0  0  0
  -36.2990  163.3120  -10.4430 C   0  0  0  0  0  0  0  0  0  0  0  0
  -36.6340  162.7640   -9.2090 C   0  0  0  0  0  0  0  0  0  0  0  0
  -36.3040  161.4850   -8.9600 N   0  0  0  0  0  0  0  0  0  0  0  0
  -36.6160  160.9610   -7.7550 C   0  0  0  0  0  0  0  0  0  0  0  0
  -37.2700  161.6590   -6.7640 C   0  0  0  0  0  0  0  0  0  0  0  0
  -37.6320  162.9730   -7.0390 C   0  0  0  0  0  0  0  0  0  0  0  0
  -38.2560  163.7360   -6.0730 O   0  0  0  0  0  0  0  0  0  0  0  0
  -38.6090  163.0920   -4.9090 C   0  0  0  0  0  0  0  0  0  0  0  0
  -38.9100  163.8970   -3.8100 C   0  0  0  0  0  0  0  0  0  0  0  0
  -39.3010  163.3190   -2.5970 C   0  0  0  0  0  0  0  0  0  0  0  0
  -39.4150  161.9310   -2.4770 C   0  0  0  0  0  0  0  0  0  0  0  0
  -39.8010  161.2850   -1.2780 N   0  0  0  0  0  0  0  0  0  0  0  0
  -38.9910  160.7680   -0.2900 C   0  0  0  0  0  0  0  0  0  0  0  0
  -37.7690  160.8240   -0.2490 O   0  0  0  0  0  0  0  0  0  0  0  0
  -39.7480  160.1690    0.7040 N   0  0  0  0  0  0  0  0  0  0  0  0
  -39.1350  159.5170    1.8220 C   0  0  0  0  0  0  0  0  0  0  0  0
  -38.5340  158.1460    1.6740 C   0  0  0  0  0  0  0  0  0  0  0  0
  -39.7930  158.3290    2.4710 C   0  0  0  0  0  0  0  0  0  0  0  0
  -39.1280  161.1340   -3.6030 C   0  0  0  0  0  0  0  0  0  0  0  0
  -39.2540  159.4070   -3.5250 Cl  0  0  0  0  0  0  0  0  0  0  0  0
  -38.7340  161.7070   -4.8160 C   0  0  0  0  0  0  0  0  0  0  0  0
  -37.3020  163.5680   -8.2730 C   0  0  0  0  0  0  0  0  0  0  0  0
  -37.6130  164.9030   -8.6050 C   0  0  0  0  0  0  0  0  0  0  0  0
  -37.2710  165.4480   -9.8540 C   0  0  0  0  0  0  0  0  0  0  0  0
  -37.6640  166.8760  -10.0780 C   0  0  0  0  0  0  0  0  0  0  0  0
  -37.2460  167.8150   -9.1820 N   0  0  0  0  0  0  0  0  0  0  0  0
  -38.3460  167.2100  -11.0400 O   0  0  0  0  0  0  0  0  0  0  0  0
  -34.6265  166.0687  -11.1274 H   0  0  0  0  0  0  0  0  0  0  0  0
  -34.3230  165.2128  -12.6773 H   0  0  0  0  0  0  0  0  0  0  0  0
  -35.1671  166.7984  -12.6773 H   0  0  0  0  0  0  0  0  0  0  0  0
  -35.7750  162.6812  -11.1762 H   0  0  0  0  0  0  0  0  0  0  0  0
  -36.3317  159.9176   -7.5536 H   0  0  0  0  0  0  0  0  0  0  0  0
  -37.4971  161.1950   -5.7928 H   0  0  0  0  0  0  0  0  0  0  0  0
  -38.8396  164.9913   -3.8974 H   0  0  0  0  0  0  0  0  0  0  0  0
  -39.5202  163.9616   -1.7316 H   0  0  0  0  0  0  0  0  0  0  0  0
  -40.7930  161.3080   -1.0810 H   0  0  0  0  0  0  0  0  0  0  0  0
  -40.6760  159.8660    0.4470 H   0  0  0  0  0  0  0  0  0  0  0  0
  -38.7699  160.4934    2.1732 H   0  0  0  0  0  0  0  0  0  0  0  0
  -38.5686  157.6326    0.7017 H   0  0  0  0  0  0  0  0  0  0  0  0
  -37.5459  157.7050    1.8721 H   0  0  0  0  0  0  0  0  0  0  0  0
  -40.7497  157.9500    2.0824 H   0  0  0  0  0  0  0  0  0  0  0  0
  -40.1089  158.0778    3.4943 H   0  0  0  0  0  0  0  0  0  0  0  0
  -38.5247  161.0708   -5.6886 H   0  0  0  0  0  0  0  0  0  0  0  0
  -38.1353  165.5320   -7.8691 H   0  0  0  0  0  0  0  0  0  0  0  0
  -36.6500  167.5730   -8.4000 H   0  0  0  0  0  0  0  0  0  0  0  0
  -37.4890  168.7810   -9.3470 H   0  0  0  0  0  0  0  0  0  0  0  0
  1  2  1  0
  2  3  1  0
  3  4  1  0
  4  5  2  0
  5  6  1  0
  6  7  2  0
  7  8  1  0
  8  9  2  0
  9 10  1  0
 10 11  1  0
 11 12  1  0
 12 13  2  0
 13 14  1  0
 14 15  1  0
 15 16  1  0
 16 17  2  0
 16 18  1  0
 18 19  1  0
 19 20  1  0
 20 21  1  0
 14 22  2  0
 22 23  1  0
 22 24  1  0
  9 25  1  0
 25 26  2  0
 26 27  1  0
 27 28  1  0
 28 29  1  0
 28 30  2  0
 27  3  2  0
 25  5  1  0
 24 11  2  0
 21 19  1  0
  1 31  1  0
  1 32  1  0
  1 33  1  0
  4 34  1  0
  7 35  1  0
  8 36  1  0
 12 37  1  0
 13 38  1  0
 15 39  1  0
 18 40  1  0
 19 41  1  0
 20 42  1  0
 20 43  1  0
 21 44  1  0
 21 45  1  0
 24 46  1  0
 26 47  1  0
 29 48  1  0
 29 49  1  0
M  END
>  <meeko>  (7) 
{"is_sidechain": false}

>  <vina_affinity_kcal_mol>  (7) 
-8.383

>  <pose_rank>  (7) 
7

$$$$

     RDKit          3D

 49 52  0  0  0  0  0  0  0  0999 V2000
  -33.0150  157.5980    5.2370 C   0  0  0  0  0  0  0  0  0  0  0  0
  -33.6830  156.7440    4.3130 O   0  0  0  0  0  0  0  0  0  0  0  0
  -34.3950  155.6820    4.8140 C   0  0  0  0  0  0  0  0  0  0  0  0
  -33.7890  154.5080    5.2890 C   0  0  0  0  0  0  0  0  0  0  0  0
  -34.5200  153.4370    5.7910 C   0  0  0  0  0  0  0  0  0  0  0  0
  -33.8570  152.3510    6.2250 N   0  0  0  0  0  0  0  0  0  0  0  0
  -34.5700  151.3180    6.7260 C   0  0  0  0  0  0  0  0  0  0  0  0
  -35.9450  151.3050    6.8060 C   0  0  0  0  0  0  0  0  0  0  0  0
  -36.6240  152.4220    6.3300 C   0  0  0  0  0  0  0  0  0  0  0  0
  -38.0010  152.4840    6.4160 O   0  0  0  0  0  0  0  0  0  0  0  0
  -38.7080  151.5510    5.6930 C   0  0  0  0  0  0  0  0  0  0  0  0
  -38.6370  151.6450    4.3030 C   0  0  0  0  0  0  0  0  0  0  0  0
  -39.3080  150.7190    3.4970 C   0  0  0  0  0  0  0  0  0  0  0  0
  -40.0400  149.6770    4.0730 C   0  0  0  0  0  0  0  0  0  0  0  0
  -40.7440  148.7120    3.3140 N   0  0  0  0  0  0  0  0  0  0  0  0
  -40.2690  147.5330    2.7810 C   0  0  0  0  0  0  0  0  0  0  0  0
  -39.1410  147.0770    2.9180 O   0  0  0  0  0  0  0  0  0  0  0  0
  -41.2570  146.8840    2.0580 N   0  0  0  0  0  0  0  0  0  0  0  0
  -40.9960  145.6570    1.3680 C   0  0  0  0  0  0  0  0  0  0  0  0
  -40.9030  145.6270   -0.1330 C   0  0  0  0  0  0  0  0  0  0  0  0
  -42.0740  144.9910    0.5570 C   0  0  0  0  0  0  0  0  0  0  0  0
  -40.0840  149.5840    5.4780 C   0  0  0  0  0  0  0  0  0  0  0  0
  -40.9700  148.3150    6.2580 Cl  0  0  0  0  0  0  0  0  0  0  0  0
  -39.4180  150.5090    6.2870 C   0  0  0  0  0  0  0  0  0  0  0  0
  -35.9200  153.5320    5.8230 C   0  0  0  0  0  0  0  0  0  0  0  0
  -36.5440  154.7050    5.3510 C   0  0  0  0  0  0  0  0  0  0  0  0
  -35.7970  155.7830    4.8470 C   0  0  0  0  0  0  0  0  0  0  0  0
  -36.5860  156.9660    4.3750 C   0  0  0  0  0  0  0  0  0  0  0  0
  -36.6740  158.0560    5.1880 N   0  0  0  0  0  0  0  0  0  0  0  0
  -37.1470  156.9690    3.2850 O   0  0  0  0  0  0  0  0  0  0  0  0
  -33.2575  157.2880    6.2642 H   0  0  0  0  0  0  0  0  0  0  0  0
  -31.9284  157.5294    5.0802 H   0  0  0  0  0  0  0  0  0  0  0  0
  -33.3433  158.6361    5.0802 H   0  0  0  0  0  0  0  0  0  0  0  0
  -32.6919  154.4324    5.2630 H   0  0  0  0  0  0  0  0  0  0  0  0
  -34.0209  150.4374    7.0907 H   0  0  0  0  0  0  0  0  0  0  0  0
  -36.4849  150.4453    7.2296 H   0  0  0  0  0  0  0  0  0  0  0  0
  -38.0505  152.4513    3.8383 H   0  0  0  0  0  0  0  0  0  0  0  0
  -39.2591  150.8117    2.4020 H   0  0  0  0  0  0  0  0  0  0  0  0
  -41.7430  148.8620    3.2530 H   0  0  0  0  0  0  0  0  0  0  0  0
  -42.0140  147.4550    1.7120 H   0  0  0  0  0  0  0  0  0  0  0  0
  -40.3399  145.3478    2.1950 H   0  0  0  0  0  0  0  0  0  0  0  0
  -41.0418  146.5525   -0.7110 H   0  0  0  0  0  0  0  0  0  0  0  0
  -40.1495  145.2865   -0.8584 H   0  0  0  0  0  0  0  0  0  0  0  0
  -43.0708  145.4505    0.4847 H   0  0  0  0  0  0  0  0  0  0  0  0
  -42.5336  143.9917    0.5465 H   0  0  0  0  0  0  0  0  0  0  0  0
  -39.4539  150.4155    7.3824 H   0  0  0  0  0  0  0  0  0  0  0  0
  -37.6413  154.7778    5.3780 H   0  0  0  0  0  0  0  0  0  0  0  0
  -36.1900  158.0950    6.0760 H   0  0  0  0  0  0  0  0  0  0  0  0
  -37.1850  158.8630    4.8590 H   0  0  0  0  0  0  0  0  0  0  0  0
  1  2  1  0
  2  3  1  0
  3  4  1  0
  4  5  2  0
  5  6  1  0
  6  7  2  0
  7  8  1  0
  8  9  2  0
  9 10  1  0
 10 11  1  0
 11 12  1  0
 12 13  2  0
 13 14  1  0
 14 15  1  0
 15 16  1  0
 16 17  2  0
 16 18  1  0
 18 19  1  0
 19 20  1  0
 20 21  1  0
 14 22  2  0
 22 23  1  0
 22 24  1  0
  9 25  1  0
 25 26  2  0
 26 27  1  0
 27 28  1  0
 28 29  1  0
 28 30  2  0
 27  3  2  0
 25  5  1  0
 24 11  2  0
 21 19  1  0
  1 31  1  0
  1 32  1  0
  1 33  1  0
  4 34  1  0
  7 35  1  0
  8 36  1  0
 12 37  1  0
 13 38  1  0
 15 39  1  0
 18 40  1  0
 19 41  1  0
 20 42  1  0
 20 43  1  0
 21 44  1  0
 21 45  1  0
 24 46  1  0
 26 47  1  0
 29 48  1  0
 29 49  1  0
M  END
>  <meeko>  (8) 
{"is_sidechain": false}

>  <vina_affinity_kcal_mol>  (8) 
-8.308

>  <pose_rank>  (8) 
8

$$$$

     RDKit          3D

 49 52  0  0  0  0  0  0  0  0999 V2000
  -41.2930  147.3340    6.2450 C   0  0  0  0  0  0  0  0  0  0  0  0
  -40.6510  147.8880    5.1010 O   0  0  0  0  0  0  0  0  0  0  0  0
  -39.5390  148.6700    5.2990 C   0  0  0  0  0  0  0  0  0  0  0  0
  -38.5340  148.3530    6.2270 C   0  0  0  0  0  0  0  0  0  0  0  0
  -37.4140  149.1540    6.4220 C   0  0  0  0  0  0  0  0  0  0  0  0
  -36.5000  148.7750    7.3320 N   0  0  0  0  0  0  0  0  0  0  0  0
  -35.4060  149.5480    7.5070 C   0  0  0  0  0  0  0  0  0  0  0  0
  -35.1760  150.7170    6.8170 C   0  0  0  0  0  0  0  0  0  0  0  0
  -36.1400  151.1160    5.8970 C   0  0  0  0  0  0  0  0  0  0  0  0
  -35.9500  152.2600    5.1470 O   0  0  0  0  0  0  0  0  0  0  0  0
  -36.0870  153.4610    5.8050 C   0  0  0  0  0  0  0  0  0  0  0  0
  -37.3380  153.7360    6.3580 C   0  0  0  0  0  0  0  0  0  0  0  0
  -37.5510  154.9250    7.0630 C   0  0  0  0  0  0  0  0  0  0  0  0
  -36.5100  155.8410    7.2420 C   0  0  0  0  0  0  0  0  0  0  0  0
  -36.6630  157.0620    7.9410 N   0  0  0  0  0  0  0  0  0  0  0  0
  -36.7830  158.3330    7.4200 C   0  0  0  0  0  0  0  0  0  0  0  0
  -36.8320  158.6310    6.2340 O   0  0  0  0  0  0  0  0  0  0  0  0
  -36.8630  159.2750    8.4340 N   0  0  0  0  0  0  0  0  0  0  0  0
  -36.9480  160.6760    8.1490 C   0  0  0  0  0  0  0  0  0  0  0  0
  -36.4080  161.6890    9.1200 C   0  0  0  0  0  0  0  0  0  0  0  0
  -37.8900  161.5590    8.9230 C   0  0  0  0  0  0  0  0  0  0  0  0
  -35.2480  155.5370    6.6940 C   0  0  0  0  0  0  0  0  0  0  0  0
  -33.9130  156.6260    6.8810 Cl  0  0  0  0  0  0  0  0  0  0  0  0
  -35.0310  154.3520    5.9860 C   0  0  0  0  0  0  0  0  0  0  0  0
  -37.2830  150.3270    5.6620 C   0  0  0  0  0  0  0  0  0  0  0  0
  -38.2840  150.6590    4.7250 C   0  0  0  0  0  0  0  0  0  0  0  0
  -39.4110  149.8420    4.5340 C   0  0  0  0  0  0  0  0  0  0  0  0
  -40.3980  150.3140    3.5100 C   0  0  0  0  0  0  0  0  0  0  0  0
  -41.7260  150.2630    3.8130 N   0  0  0  0  0  0  0  0  0  0  0  0
  -40.0350  150.7390    2.4180 O   0  0  0  0  0  0  0  0  0  0  0  0
  -40.8275  147.7357    7.1571 H   0  0  0  0  0  0  0  0  0  0  0  0
  -42.3605  147.5992    6.2308 H   0  0  0  0  0  0  0  0  0  0  0  0
  -41.1869  146.2392    6.2308 H   0  0  0  0  0  0  0  0  0  0  0  0
  -38.6367  147.4345    6.8235 H   0  0  0  0  0  0  0  0  0  0  0  0
  -34.6555  149.2247    8.2434 H   0  0  0  0  0  0  0  0  0  0  0  0
  -34.2663  151.3117    6.9865 H   0  0  0  0  0  0  0  0  0  0  0  0
  -38.1601  153.0148    6.2391 H   0  0  0  0  0  0  0  0  0  0  0  0
  -38.5456  155.1412    7.4800 H   0  0  0  0  0  0  0  0  0  0  0  0
  -36.8090  156.9690    8.9370 H   0  0  0  0  0  0  0  0  0  0  0  0
  -36.4830  159.0100    9.3300 H   0  0  0  0  0  0  0  0  0  0  0  0
  -36.7855  160.4549    7.0838 H   0  0  0  0  0  0  0  0  0  0  0  0
  -35.9475  161.3564   10.0620 H   0  0  0  0  0  0  0  0  0  0  0  0
  -35.6856  162.5162    9.0583 H   0  0  0  0  0  0  0  0  0  0  0  0
  -38.5153  161.1307    9.7202 H   0  0  0  0  0  0  0  0  0  0  0  0
  -38.7028  162.2508    8.6571 H   0  0  0  0  0  0  0  0  0  0  0  0
  -34.0361  154.1247    5.5755 H   0  0  0  0  0  0  0  0  0  0  0  0
  -38.1798  151.5785    4.1303 H   0  0  0  0  0  0  0  0  0  0  0  0
  -42.0510  149.9530    4.7200 H   0  0  0  0  0  0  0  0  0  0  0  0
  -42.3890  150.6050    3.1320 H   0  0  0  0  0  0  0  0  0  0  0  0
  1  2  1  0
  2  3  1  0
  3  4  1  0
  4  5  2  0
  5  6  1  0
  6  7  2  0
  7  8  1  0
  8  9  2  0
  9 10  1  0
 10 11  1  0
 11 12  1  0
 12 13  2  0
 13 14  1  0
 14 15  1  0
 15 16  1  0
 16 17  2  0
 16 18  1  0
 18 19  1  0
 19 20  1  0
 20 21  1  0
 14 22  2  0
 22 23  1  0
 22 24  1  0
  9 25  1  0
 25 26  2  0
 26 27  1  0
 27 28  1  0
 28 29  1  0
 28 30  2  0
 27  3  2  0
 25  5  1  0
 24 11  2  0
 21 19  1  0
  1 31  1  0
  1 32  1  0
  1 33  1  0
  4 34  1  0
  7 35  1  0
  8 36  1  0
 12 37  1  0
 13 38  1  0
 15 39  1  0
 18 40  1  0
 19 41  1  0
 20 42  1  0
 20 43  1  0
 21 44  1  0
 21 45  1  0
 24 46  1  0
 26 47  1  0
 29 48  1  0
 29 49  1  0
M  END
>  <meeko>  (9) 
{"is_sidechain": false}

>  <vina_affinity_kcal_mol>  (9) 
-8.102

>  <pose_rank>  (9) 
9

$$$$

     RDKit          3D

 49 52  0  0  0  0  0  0  0  0999 V2000
  -34.5240  147.0200    8.3460 C   0  0  0  0  0  0  0  0  0  0  0  0
  -35.5550  147.3270    7.4110 O   0  0  0  0  0  0  0  0  0  0  0  0
  -35.3490  147.0030    6.0930 C   0  0  0  0  0  0  0  0  0  0  0  0
  -35.3250  145.6810    5.6220 C   0  0  0  0  0  0  0  0  0  0  0  0
  -35.1130  145.3640    4.2850 C   0  0  0  0  0  0  0  0  0  0  0  0
  -35.1070  144.0690    3.9220 N   0  0  0  0  0  0  0  0  0  0  0  0
  -34.9150  143.7670    2.6190 C   0  0  0  0  0  0  0  0  0  0  0  0
  -34.7090  144.7090    1.6370 C   0  0  0  0  0  0  0  0  0  0  0  0
  -34.6900  146.0450    2.0260 C   0  0  0  0  0  0  0  0  0  0  0  0
  -34.5240  147.0390    1.0820 O   0  0  0  0  0  0  0  0  0  0  0  0
  -35.5610  147.2280    0.1960 C   0  0  0  0  0  0  0  0  0  0  0  0
  -35.2600  147.1070   -1.1610 C   0  0  0  0  0  0  0  0  0  0  0  0
  -36.2640  147.2610   -2.1230 C   0  0  0  0  0  0  0  0  0  0  0  0
  -37.5830  147.5160   -1.7380 C   0  0  0  0  0  0  0  0  0  0  0  0
  -38.6420  147.6870   -2.6610 N   0  0  0  0  0  0  0  0  0  0  0  0
  -39.6490  146.8000   -2.9760 C   0  0  0  0  0  0  0  0  0  0  0  0
  -39.8400  145.7060   -2.4630 O   0  0  0  0  0  0  0  0  0  0  0  0
  -40.4680  147.3170   -3.9680 N   0  0  0  0  0  0  0  0  0  0  0  0
  -41.5640  146.5650   -4.5020 C   0  0  0  0  0  0  0  0  0  0  0  0
  -41.7780  146.4730   -5.9870 C   0  0  0  0  0  0  0  0  0  0  0  0
  -42.7320  147.2640   -5.1410 C   0  0  0  0  0  0  0  0  0  0  0  0
  -37.8730  147.6140   -0.3630 C   0  0  0  0  0  0  0  0  0  0  0  0
  -39.4880  147.9260    0.1850 Cl  0  0  0  0  0  0  0  0  0  0  0  0
  -36.8730  147.4650    0.6020 C   0  0  0  0  0  0  0  0  0  0  0  0
  -34.9120  146.4080    3.3680 C   0  0  0  0  0  0  0  0  0  0  0  0
  -34.9330  147.7420    3.8250 C   0  0  0  0  0  0  0  0  0  0  0  0
  -35.1500  148.0520    5.1780 C   0  0  0  0  0  0  0  0  0  0  0  0
  -35.1450  149.5090    5.5270 C   0  0  0  0  0  0  0  0  0  0  0  0
  -34.1500  149.9830    6.3290 N   0  0  0  0  0  0  0  0  0  0  0  0
  -36.0090  150.2720    5.1080 O   0  0  0  0  0  0  0  0  0  0  0  0
  -34.9108  147.1352    9.3693 H   0  0  0  0  0  0  0  0  0  0  0  0
  -34.1890  145.9832    8.1952 H   0  0  0  0  0  0  0  0  0  0  0  0
  -33.6764  147.7047    8.1952 H   0  0  0  0  0  0  0  0  0  0  0  0
  -35.4803  144.8623    6.3400 H   0  0  0  0  0  0  0  0  0  0  0  0
  -34.9239  142.7067    2.3262 H   0  0  0  0  0  0  0  0  0  0  0  0
  -34.5651  144.4174    0.5862 H   0  0  0  0  0  0  0  0  0  0  0  0
  -34.2287  146.8895   -1.4758 H   0  0  0  0  0  0  0  0  0  0  0  0
  -36.0132  147.1807   -3.1910 H   0  0  0  0  0  0  0  0  0  0  0  0
  -38.7220  148.6160   -3.0520 H   0  0  0  0  0  0  0  0  0  0  0  0
  -40.0690  148.0300   -4.5600 H   0  0  0  0  0  0  0  0  0  0  0  0
  -41.4433  145.8368   -3.6864 H   0  0  0  0  0  0  0  0  0  0  0  0
  -41.0931  146.9912   -6.6743 H   0  0  0  0  0  0  0  0  0  0  0  0
  -41.8785  145.6486   -6.7083 H   0  0  0  0  0  0  0  0  0  0  0  0
  -42.7461  148.3619   -5.2082 H   0  0  0  0  0  0  0  0  0  0  0  0
  -43.8209  147.2593   -4.9855 H   0  0  0  0  0  0  0  0  0  0  0  0
  -37.1192  147.5341    1.6719 H   0  0  0  0  0  0  0  0  0  0  0  0
  -34.7758  148.5589    3.1053 H   0  0  0  0  0  0  0  0  0  0  0  0
  -33.4030  149.3840    6.6570 H   0  0  0  0  0  0  0  0  0  0  0  0
  -34.1320  150.9700    6.5430 H   0  0  0  0  0  0  0  0  0  0  0  0
  1  2  1  0
  2  3  1  0
  3  4  1  0
  4  5  2  0
  5  6  1  0
  6  7  2  0
  7  8  1  0
  8  9  2  0
  9 10  1  0
 10 11  1  0
 11 12  1  0
 12 13  2  0
 13 14  1  0
 14 15  1  0
 15 16  1  0
 16 17  2  0
 16 18  1  0
 18 19  1  0
 19 20  1  0
 20 21  1  0
 14 22  2  0
 22 23  1  0
 22 24  1  0
  9 25  1  0
 25 26  2  0
 26 27  1  0
 27 28  1  0
 28 29  1  0
 28 30  2  0
 27  3  2  0
 25  5  1  0
 24 11  2  0
 21 19  1  0
  1 31  1  0
  1 32  1  0
  1 33  1  0
  4 34  1  0
  7 35  1  0
  8 36  1  0
 12 37  1  0
 13 38  1  0
 15 39  1  0
 18 40  1  0
 19 41  1  0
 20 42  1  0
 20 43  1  0
 21 44  1  0
 21 45  1  0
 24 46  1  0
 26 47  1  0
 29 48  1  0
 29 49  1  0
M  END
>  <meeko>  (10) 
{"is_sidechain": false}

>  <vina_affinity_kcal_mol>  (10) 
-7.893

>  <pose_rank>  (10) 
10

$$$$
