
     RDKit          3D

 42 45  0  0  0  0  0  0  0  0999 V2000
   -4.5480    1.3848    0.9985 C   0  0  0  0  0  0  0  0  0  0  0  0
   -4.3482    0.3146    0.0153 N   0  0  0  0  0  0  0  0  0  0  0  0
   -5.1385    0.4629   -1.2064 C   0  0  0  0  0  0  0  0  0  0  0  0
   -2.9581    0.0970   -0.1998 C   0  0  0  0  0  0  0  0  0  0  0  0
   -2.2318    0.8921   -1.0987 C   0  0  0  0  0  0  0  0  0  0  0  0
   -0.8652    0.7023   -1.2800 C   0  0  0  0  0  0  0  0  0  0  0  0
   -0.1821   -0.2798   -0.5551 C   0  0  0  0  0  0  0  0  0  0  0  0
    1.2565   -0.4506   -0.8188 C   0  0  0  0  0  0  0  0  0  0  0  0
    2.2294    0.3923   -0.4427 C   0  0  0  0  0  0  0  0  0  0  0  0
    2.0892    1.6870    0.3213 C   0  0  0  0  0  0  0  0  0  0  0  0
    1.0809    2.2318    0.7238 O   0  0  0  0  0  0  0  0  0  0  0  0
    3.3881    2.1533    0.4695 N   0  0  0  0  0  0  0  0  0  0  0  0
    4.3102    1.2943   -0.1193 C   0  0  0  0  0  0  0  0  0  0  0  0
    5.6805    1.4521   -0.1595 C   0  0  0  0  0  0  0  0  0  0  0  0
    6.4206    0.4615   -0.8090 C   0  0  0  0  0  0  0  0  0  0  0  0
    5.7814   -0.6473   -1.3946 C   0  0  0  0  0  0  0  0  0  0  0  0
    4.3895   -0.7863   -1.3412 C   0  0  0  0  0  0  0  0  0  0  0  0
    3.6619    0.1982   -0.6960 C   0  0  0  0  0  0  0  0  0  0  0  0
   -0.8792   -1.1042    0.3669 C   0  0  0  0  0  0  0  0  0  0  0  0
   -0.2381   -2.1129    1.1286 C   0  0  0  0  0  0  0  0  0  0  0  0
   -0.9394   -2.9212    2.0240 C   0  0  0  0  0  0  0  0  0  0  0  0
   -2.3040   -2.7444    2.1826 C   0  0  0  0  0  0  0  0  0  0  0  0
   -2.9599   -1.7553    1.4501 C   0  0  0  0  0  0  0  0  0  0  0  0
   -2.2777   -0.9144    0.5407 C   0  0  0  0  0  0  0  0  0  0  0  0
   -4.0176    1.1738    1.9342 H   0  0  0  0  0  0  0  0  0  0  0  0
   -5.6125    1.4662    1.2444 H   0  0  0  0  0  0  0  0  0  0  0  0
   -4.2144    2.3560    0.6144 H   0  0  0  0  0  0  0  0  0  0  0  0
   -4.9789    1.4321   -1.6915 H   0  0  0  0  0  0  0  0  0  0  0  0
   -6.2037    0.3876   -0.9611 H   0  0  0  0  0  0  0  0  0  0  0  0
   -4.9158   -0.3381   -1.9205 H   0  0  0  0  0  0  0  0  0  0  0  0
   -2.7177    1.6894   -1.6520 H   0  0  0  0  0  0  0  0  0  0  0  0
   -0.3332    1.3427   -1.9795 H   0  0  0  0  0  0  0  0  0  0  0  0
    1.4945   -1.3664   -1.3530 H   0  0  0  0  0  0  0  0  0  0  0  0
    3.6014    3.0133    0.9498 H   0  0  0  0  0  0  0  0  0  0  0  0
    6.1700    2.3070    0.2922 H   0  0  0  0  0  0  0  0  0  0  0  0
    7.5039    0.5460   -0.8641 H   0  0  0  0  0  0  0  0  0  0  0  0
    6.3790   -1.4065   -1.8955 H   0  0  0  0  0  0  0  0  0  0  0  0
    3.9074   -1.6446   -1.7961 H   0  0  0  0  0  0  0  0  0  0  0  0
    0.8330   -2.2766    1.0351 H   0  0  0  0  0  0  0  0  0  0  0  0
   -0.4167   -3.6842    2.5937 H   0  0  0  0  0  0  0  0  0  0  0  0
   -2.8634   -3.3684    2.8735 H   0  0  0  0  0  0  0  0  0  0  0  0
   -4.0334   -1.6369    1.5878 H   0  0  0  0  0  0  0  0  0  0  0  0
  1  2  1  0
  2  3  1  0
  2  4  1  0
  4  5  2  0
  5  6  1  0
  6  7  2  0
  7  8  1  0
  8  9  2  0
  9 10  1  0
 10 11  2  0
 10 12  1  0
 12 13  1  0
 13 14  2  0
 14 15  1  0
 15 16  2  0
 16 17  1  0
 17 18  2  0
  7 19  1  0
 19 20  2  0
 20 21  1  0
 21 22  2  0
 22 23  1  0
 23 24  2  0
 24  4  1  0
 18  9  1  0
 24 19  1  0
 18 13  1  0
  1 25  1  0
  1 26  1  0
  1 27  1  0
  3 28  1  0
  3 29  1  0
  3 30  1  0
  5 31  1  0
  6 32  1  0
  8 33  1  0
 12 34  1  0
 14 35  1  0
 15 36  1  0
 16 37  1  0
 17 38  1  0
 20 39  1  0
 21 40  1  0
 22 41  1  0
 23 42  1  0
M  END
$$$$
