
     RDKit          3D

 42 45  0  0  0  0  0  0  0  0999 V2000
  -36.3500  161.3140   -7.9390 C   0  0  0  0  0  0  0  0  0  0  0  0
  -37.3670  162.3410   -7.6880 N   0  0  0  0  0  0  0  0  0  0  0  0
  -38.2250  162.6330   -8.8360 C   0  0  0  0  0  0  0  0  0  0  0  0
  -38.0670  162.0590   -6.4810 C   0  0  0  0  0  0  0  0  0  0  0  0
  -38.5730  160.7770   -6.2230 C   0  0  0  0  0  0  0  0  0  0  0  0
  -39.2240  160.4920   -5.0250 C   0  0  0  0  0  0  0  0  0  0  0  0
  -39.3730  161.4790   -4.0460 C   0  0  0  0  0  0  0  0  0  0  0  0
  -40.1000  161.1210   -2.8170 C   0  0  0  0  0  0  0  0  0  0  0  0
  -39.6100  160.4040   -1.7950 C   0  0  0  0  0  0  0  0  0  0  0  0
  -38.2300  159.8040   -1.6620 C   0  0  0  0  0  0  0  0  0  0  0  0
  -37.3060  159.8290   -2.4490 O   0  0  0  0  0  0  0  0  0  0  0  0
  -38.2310  159.1880   -0.4180 N   0  0  0  0  0  0  0  0  0  0  0  0
  -39.4540  159.3380    0.2270 C   0  0  0  0  0  0  0  0  0  0  0  0
  -39.7990  158.8520    1.4710 C   0  0  0  0  0  0  0  0  0  0  0  0
  -41.0920  159.1190    1.9280 C   0  0  0  0  0  0  0  0  0  0  0  0
  -41.9960  159.8560    1.1390 C   0  0  0  0  0  0  0  0  0  0  0  0
  -41.6230  160.3390   -0.1190 C   0  0  0  0  0  0  0  0  0  0  0  0
  -40.3410  160.0720   -0.5660 C   0  0  0  0  0  0  0  0  0  0  0  0
  -38.8710  162.7890   -4.2660 C   0  0  0  0  0  0  0  0  0  0  0  0
  -38.9930  163.8270   -3.3090 C   0  0  0  0  0  0  0  0  0  0  0  0
  -38.5030  165.1110   -3.5450 C   0  0  0  0  0  0  0  0  0  0  0  0
  -37.8780  165.3960   -4.7480 C   0  0  0  0  0  0  0  0  0  0  0  0
  -37.7400  164.3920   -5.7070 C   0  0  0  0  0  0  0  0  0  0  0  0
  -38.2170  163.0780   -5.4960 C   0  0  0  0  0  0  0  0  0  0  0  0
  -35.9709  160.9312   -6.9799 H   0  0  0  0  0  0  0  0  0  0  0  0
  -36.7964  160.4884   -8.5126 H   0  0  0  0  0  0  0  0  0  0  0  0
  -35.5200  161.7523   -8.5126 H   0  0  0  0  0  0  0  0  0  0  0  0
  -39.2107  162.9684   -8.4812 H   0  0  0  0  0  0  0  0  0  0  0  0
  -37.7654  163.4253   -9.4451 H   0  0  0  0  0  0  0  0  0  0  0  0
  -38.3442  161.7248   -9.4451 H   0  0  0  0  0  0  0  0  0  0  0  0
  -38.4542  159.9852   -6.9773 H   0  0  0  0  0  0  0  0  0  0  0  0
  -39.6239  159.4827   -4.8478 H   0  0  0  0  0  0  0  0  0  0  0  0
  -41.1384  161.4732   -2.7290 H   0  0  0  0  0  0  0  0  0  0  0  0
  -37.4260  158.7000   -0.0570 H   0  0  0  0  0  0  0  0  0  0  0  0
  -39.0847  158.2773    2.0789 H   0  0  0  0  0  0  0  0  0  0  0  0
  -41.4073  158.7495    2.9149 H   0  0  0  0  0  0  0  0  0  0  0  0
  -43.0096  160.0545    1.5176 H   0  0  0  0  0  0  0  0  0  0  0  0
  -42.3286  160.9149   -0.7358 H   0  0  0  0  0  0  0  0  0  0  0  0
  -39.4893  163.6134   -2.3509 H   0  0  0  0  0  0  0  0  0  0  0  0
  -38.6122  165.8936   -2.7798 H   0  0  0  0  0  0  0  0  0  0  0  0
  -37.4930  166.4072   -4.9459 H   0  0  0  0  0  0  0  0  0  0  0  0
  -37.2435  164.6308   -6.6591 H   0  0  0  0  0  0  0  0  0  0  0  0
  1  2  1  0
  2  3  1  0
  2  4  1  0
  4  5  2  0
  5  6  1  0
  6  7  2  0
  7  8  1  0
  8  9  2  0
  9 10  1  0
 10 11  2  0
 10 12  1  0
 12 13  1  0
 13 14  2  0
 14 15  1  0
 15 16  2  0
 16 17  1  0
 17 18  2  0
  7 19  1  0
 19 20  2  0
 20 21  1  0
 21 22  2  0
 22 23  1  0
 23 24  2  0
 24  4  1  0
 18  9  1  0
 24 19  1  0
 18 13  1  0
  1 25  1  0
  1 26  1  0
  1 27  1  0
  3 28  1  0
  3 29  1  0
  3 30  1  0
  5 31  1  0
  6 32  1  0
  8 33  1  0
 12 34  1  0
 14 35  1  0
 15 36  1  0
 16 37  1  0
 17 38  1  0
 20 39  1  0
 21 40  1  0
 22 41  1  0
 23 42  1  0
M  END
>  <meeko>  (1) 
{"is_sidechain": false}

>  <vina_affinity_kcal_mol>  (1) 
-9.374

>  <pose_rank>  (1) 
1

$$$$

     RDKit          3D

 42 45  0  0  0  0  0  0  0  0999 V2000
  -40.5860  157.6830    2.8480 C   0  0  0  0  0  0  0  0  0  0  0  0
  -39.3180  158.4060    2.7030 N   0  0  0  0  0  0  0  0  0  0  0  0
  -38.1350  157.6290    3.0700 C   0  0  0  0  0  0  0  0  0  0  0  0
  -39.2480  159.0260    1.4240 C   0  0  0  0  0  0  0  0  0  0  0  0
  -38.0740  158.9740    0.6590 C   0  0  0  0  0  0  0  0  0  0  0  0
  -38.0190  159.5480   -0.6080 C   0  0  0  0  0  0  0  0  0  0  0  0
  -39.1430  160.1790   -1.1520 C   0  0  0  0  0  0  0  0  0  0  0  0
  -39.0070  160.7950   -2.4820 C   0  0  0  0  0  0  0  0  0  0  0  0
  -38.8640  162.1050   -2.7290 C   0  0  0  0  0  0  0  0  0  0  0  0
  -38.8090  163.2360   -1.7300 C   0  0  0  0  0  0  0  0  0  0  0  0
  -38.9060  163.1930   -0.5200 O   0  0  0  0  0  0  0  0  0  0  0  0
  -38.6290  164.3790   -2.4980 N   0  0  0  0  0  0  0  0  0  0  0  0
  -38.5690  164.0790   -3.8540 C   0  0  0  0  0  0  0  0  0  0  0  0
  -38.4000  164.9720   -4.8920 C   0  0  0  0  0  0  0  0  0  0  0  0
  -38.3720  164.4500   -6.1890 C   0  0  0  0  0  0  0  0  0  0  0  0
  -38.5120  163.0680   -6.4100 C   0  0  0  0  0  0  0  0  0  0  0  0
  -38.6820  162.1810   -5.3410 C   0  0  0  0  0  0  0  0  0  0  0  0
  -38.7090  162.7040   -4.0610 C   0  0  0  0  0  0  0  0  0  0  0  0
  -40.3520  160.2510   -0.4110 C   0  0  0  0  0  0  0  0  0  0  0  0
  -41.5210  160.8770   -0.9120 C   0  0  0  0  0  0  0  0  0  0  0  0
  -42.6980  160.9480   -0.1670 C   0  0  0  0  0  0  0  0  0  0  0  0
  -42.7410  160.3960    1.1030 C   0  0  0  0  0  0  0  0  0  0  0  0
  -41.6060  159.7700    1.6190 C   0  0  0  0  0  0  0  0  0  0  0  0
  -40.4000  159.6730    0.8880 C   0  0  0  0  0  0  0  0  0  0  0  0
  -40.8139  157.5530    3.9163 H   0  0  0  0  0  0  0  0  0  0  0  0
  -41.3924  158.2571    2.3682 H   0  0  0  0  0  0  0  0  0  0  0  0
  -40.5026  156.6967    2.3682 H   0  0  0  0  0  0  0  0  0  0  0  0
  -38.0559  157.5771    4.1659 H   0  0  0  0  0  0  0  0  0  0  0  0
  -38.2226  156.6120    2.6601 H   0  0  0  0  0  0  0  0  0  0  0  0
  -37.2365  158.1134    2.6601 H   0  0  0  0  0  0  0  0  0  0  0  0
  -37.1836  158.4724    1.0659 H   0  0  0  0  0  0  0  0  0  0  0  0
  -37.0842  159.5051   -1.1862 H   0  0  0  0  0  0  0  0  0  0  0  0
  -39.0242  160.1204   -3.3507 H   0  0  0  0  0  0  0  0  0  0  0  0
  -38.5540  165.2970   -2.0890 H   0  0  0  0  0  0  0  0  0  0  0  0
  -38.2917  166.0509   -4.7069 H   0  0  0  0  0  0  0  0  0  0  0  0
  -38.2391  165.1273   -7.0455 H   0  0  0  0  0  0  0  0  0  0  0  0
  -38.4875  162.6786   -7.4385 H   0  0  0  0  0  0  0  0  0  0  0  0
  -38.7909  161.1001   -5.5137 H   0  0  0  0  0  0  0  0  0  0  0  0
  -41.4992  161.3201   -1.9186 H   0  0  0  0  0  0  0  0  0  0  0  0
  -43.5881  161.4401   -0.5859 H   0  0  0  0  0  0  0  0  0  0  0  0
  -43.6632  160.4509    1.7001 H   0  0  0  0  0  0  0  0  0  0  0  0
  -41.6511  159.3371    2.6292 H   0  0  0  0  0  0  0  0  0  0  0  0
  1  2  1  0
  2  3  1  0
  2  4  1  0
  4  5  2  0
  5  6  1  0
  6  7  2  0
  7  8  1  0
  8  9  2  0
  9 10  1  0
 10 11  2  0
 10 12  1  0
 12 13  1  0
 13 14  2  0
 14 15  1  0
 15 16  2  0
 16 17  1  0
 17 18  2  0
  7 19  1  0
 19 20  2  0
 20 21  1  0
 21 22  2  0
 22 23  1  0
 23 24  2  0
 24  4  1  0
 18  9  1  0
 24 19  1  0
 18 13  1  0
  1 25  1  0
  1 26  1  0
  1 27  1  0
  3 28  1  0
  3 29  1  0
  3 30  1  0
  5 31  1  0
  6 32  1  0
  8 33  1  0
 12 34  1  0
 14 35  1  0
 15 36  1  0
 16 37  1  0
 17 38  1  0
 20 39  1  0
 21 40  1  0
 22 41  1  0
 23 42  1  0
M  END
>  <meeko>  (2) 
{"is_sidechain": false}

>  <vina_affinity_kcal_mol>  (2) 
-8.868

>  <pose_rank>  (2) 
2

$$$$

     RDKit          3D

 42 45  0  0  0  0  0  0  0  0999 V2000
  -33.9340  148.9270    2.1220 C   0  0  0  0  0  0  0  0  0  0  0  0
  -34.4170  147.5480    1.9900 N   0  0  0  0  0  0  0  0  0  0  0  0
  -34.7680  146.9080    3.2560 C   0  0  0  0  0  0  0  0  0  0  0  0
  -35.4240  147.4720    0.9870 C   0  0  0  0  0  0  0  0  0  0  0  0
  -36.6910  148.0390    1.1900 C   0  0  0  0  0  0  0  0  0  0  0  0
  -37.6620  147.9970    0.1940 C   0  0  0  0  0  0  0  0  0  0  0  0
  -37.3890  147.3990   -1.0400 C   0  0  0  0  0  0  0  0  0  0  0  0
  -38.4710  147.3580   -2.0370 C   0  0  0  0  0  0  0  0  0  0  0  0
  -39.4050  146.4020   -2.1440 C   0  0  0  0  0  0  0  0  0  0  0  0
  -39.5680  145.1660   -1.2910 C   0  0  0  0  0  0  0  0  0  0  0  0
  -38.8830  144.7810   -0.3640 O   0  0  0  0  0  0  0  0  0  0  0  0
  -40.6900  144.5290   -1.8010 N   0  0  0  0  0  0  0  0  0  0  0  0
  -41.2350  145.2300   -2.8720 C   0  0  0  0  0  0  0  0  0  0  0  0
  -42.3470  144.8820   -3.6090 C   0  0  0  0  0  0  0  0  0  0  0  0
  -42.7190  145.7370   -4.6510 C   0  0  0  0  0  0  0  0  0  0  0  0
  -41.9790  146.9020   -4.9240 C   0  0  0  0  0  0  0  0  0  0  0  0
  -40.8540  147.2350   -4.1610 C   0  0  0  0  0  0  0  0  0  0  0  0
  -40.4910  146.3850   -3.1310 C   0  0  0  0  0  0  0  0  0  0  0  0
  -36.1180  146.8160   -1.2880 C   0  0  0  0  0  0  0  0  0  0  0  0
  -35.7860  146.1980   -2.5200 C   0  0  0  0  0  0  0  0  0  0  0  0
  -34.5360  145.6220   -2.7440 C   0  0  0  0  0  0  0  0  0  0  0  0
  -33.5800  145.6450   -1.7400 C   0  0  0  0  0  0  0  0  0  0  0  0
  -33.8780  146.2510   -0.5200 C   0  0  0  0  0  0  0  0  0  0  0  0
  -35.1320  146.8510   -0.2630 C   0  0  0  0  0  0  0  0  0  0  0  0
  -33.8441  149.1836    3.1879 H   0  0  0  0  0  0  0  0  0  0  0  0
  -32.9502  149.0188    1.6385 H   0  0  0  0  0  0  0  0  0  0  0  0
  -34.6455  149.6126    1.6385 H   0  0  0  0  0  0  0  0  0  0  0  0
  -34.4240  147.5352    4.0917 H   0  0  0  0  0  0  0  0  0  0  0  0
  -35.8596  146.7854    3.3146 H   0  0  0  0  0  0  0  0  0  0  0  0
  -34.2846  145.9217    3.3146 H   0  0  0  0  0  0  0  0  0  0  0  0
  -36.9203  148.5238    2.1504 H   0  0  0  0  0  0  0  0  0  0  0  0
  -38.6526  148.4380    0.3791 H   0  0  0  0  0  0  0  0  0  0  0  0
  -38.5176  148.1863   -2.7594 H   0  0  0  0  0  0  0  0  0  0  0  0
  -41.0410  143.6650   -1.4180 H   0  0  0  0  0  0  0  0  0  0  0  0
  -42.9184  143.9688   -3.3863 H   0  0  0  0  0  0  0  0  0  0  0  0
  -43.6000  145.4961   -5.2641 H   0  0  0  0  0  0  0  0  0  0  0  0
  -42.2890  147.5604   -5.7488 H   0  0  0  0  0  0  0  0  0  0  0  0
  -40.2752  148.1459   -4.3738 H   0  0  0  0  0  0  0  0  0  0  0  0
  -36.5370  146.1721   -3.3233 H   0  0  0  0  0  0  0  0  0  0  0  0
  -34.3095  145.1518   -3.7123 H   0  0  0  0  0  0  0  0  0  0  0  0
  -32.5930  145.1882   -1.9048 H   0  0  0  0  0  0  0  0  0  0  0  0
  -33.1116  146.2626    0.2690 H   0  0  0  0  0  0  0  0  0  0  0  0
  1  2  1  0
  2  3  1  0
  2  4  1  0
  4  5  2  0
  5  6  1  0
  6  7  2  0
  7  8  1  0
  8  9  2  0
  9 10  1  0
 10 11  2  0
 10 12  1  0
 12 13  1  0
 13 14  2  0
 14 15  1  0
 15 16  2  0
 16 17  1  0
 17 18  2  0
  7 19  1  0
 19 20  2  0
 20 21  1  0
 21 22  2  0
 22 23  1  0
 23 24  2  0
 24  4  1  0
 18  9  1  0
 24 19  1  0
 18 13  1  0
  1 25  1  0
  1 26  1  0
  1 27  1  0
  3 28  1  0
  3 29  1  0
  3 30  1  0
  5 31  1  0
  6 32  1  0
  8 33  1  0
 12 34  1  0
 14 35  1  0
 15 36  1  0
 16 37  1  0
 17 38  1  0
 20 39  1  0
 21 40  1  0
 22 41  1  0
 23 42  1  0
M  END
>  <meeko>  (3) 
{"is_sidechain": false}

>  <vina_affinity_kcal_mol>  (3) 
-7.876

>  <pose_rank>  (3) 
3

$$$$

     RDKit          3D

 42 45  0  0  0  0  0  0  0  0999 V2000
  -34.4960  147.4950    7.1020 C   0  0  0  0  0  0  0  0  0  0  0  0
  -35.8250  147.9090    7.5670 N   0  0  0  0  0  0  0  0  0  0  0  0
  -36.1800  147.4140    8.8960 C   0  0  0  0  0  0  0  0  0  0  0  0
  -35.9940  149.3110    7.3910 C   0  0  0  0  0  0  0  0  0  0  0  0
  -35.2070  150.2290    8.1020 C   0  0  0  0  0  0  0  0  0  0  0  0
  -35.3480  151.5990    7.9010 C   0  0  0  0  0  0  0  0  0  0  0  0
  -36.2710  152.0900    6.9710 C   0  0  0  0  0  0  0  0  0  0  0  0
  -36.3930  153.5500    6.8320 C   0  0  0  0  0  0  0  0  0  0  0  0
  -35.5970  154.3380    6.0940 C   0  0  0  0  0  0  0  0  0  0  0  0
  -34.4140  153.9290    5.2500 C   0  0  0  0  0  0  0  0  0  0  0  0
  -33.9350  152.8240    5.0880 O   0  0  0  0  0  0  0  0  0  0  0  0
  -33.9590  155.1110    4.6810 N   0  0  0  0  0  0  0  0  0  0  0  0
  -34.7260  156.1990    5.0810 C   0  0  0  0  0  0  0  0  0  0  0  0
  -34.5520  157.5160    4.7080 C   0  0  0  0  0  0  0  0  0  0  0  0
  -35.4440  158.4550    5.2350 C   0  0  0  0  0  0  0  0  0  0  0  0
  -36.4720  158.0580    6.1100 C   0  0  0  0  0  0  0  0  0  0  0  0
  -36.6290  156.7160    6.4730 C   0  0  0  0  0  0  0  0  0  0  0  0
  -35.7440  155.7910    5.9480 C   0  0  0  0  0  0  0  0  0  0  0  0
  -37.0840  151.1940    6.2280 C   0  0  0  0  0  0  0  0  0  0  0  0
  -38.0330  151.6350    5.2730 C   0  0  0  0  0  0  0  0  0  0  0  0
  -38.8320  150.7420    4.5580 C   0  0  0  0  0  0  0  0  0  0  0  0
  -38.7050  149.3810    4.7790 C   0  0  0  0  0  0  0  0  0  0  0  0
  -37.7750  148.9180    5.7100 C   0  0  0  0  0  0  0  0  0  0  0  0
  -36.9450  149.7950    6.4450 C   0  0  0  0  0  0  0  0  0  0  0  0
  -33.8502  147.2938    7.9695 H   0  0  0  0  0  0  0  0  0  0  0  0
  -34.5879  146.5829    6.4940 H   0  0  0  0  0  0  0  0  0  0  0  0
  -34.0537  148.2979    6.4940 H   0  0  0  0  0  0  0  0  0  0  0  0
  -35.7196  148.0560    9.6614 H   0  0  0  0  0  0  0  0  0  0  0  0
  -37.2736  147.4302    9.0133 H   0  0  0  0  0  0  0  0  0  0  0  0
  -35.8139  146.3834    9.0133 H   0  0  0  0  0  0  0  0  0  0  0  0
  -34.4679  149.8609    8.8288 H   0  0  0  0  0  0  0  0  0  0  0  0
  -34.7287  152.3015    8.4780 H   0  0  0  0  0  0  0  0  0  0  0  0
  -37.2102  154.0389    7.3827 H   0  0  0  0  0  0  0  0  0  0  0  0
  -33.1670  155.1400    4.0580 H   0  0  0  0  0  0  0  0  0  0  0  0
  -33.7443  157.8151    4.0238 H   0  0  0  0  0  0  0  0  0  0  0  0
  -35.3410  159.5157    4.9626 H   0  0  0  0  0  0  0  0  0  0  0  0
  -37.1619  158.8134    6.5143 H   0  0  0  0  0  0  0  0  0  0  0  0
  -37.4331  156.4051    7.1563 H   0  0  0  0  0  0  0  0  0  0  0  0
  -38.1433  152.7140    5.0896 H   0  0  0  0  0  0  0  0  0  0  0  0
  -39.5589  151.1173    3.8227 H   0  0  0  0  0  0  0  0  0  0  0  0
  -39.3336  148.6692    4.2238 H   0  0  0  0  0  0  0  0  0  0  0  0
  -37.6845  147.8346    5.8777 H   0  0  0  0  0  0  0  0  0  0  0  0
  1  2  1  0
  2  3  1  0
  2  4  1  0
  4  5  2  0
  5  6  1  0
  6  7  2  0
  7  8  1  0
  8  9  2  0
  9 10  1  0
 10 11  2  0
 10 12  1  0
 12 13  1  0
 13 14  2  0
 14 15  1  0
 15 16  2  0
 16 17  1  0
 17 18  2  0
  7 19  1  0
 19 20  2  0
 20 21  1  0
 21 22  2  0
 22 23  1  0
 23 24  2  0
 24  4  1  0
 18  9  1  0
 24 19  1  0
 18 13  1  0
  1 25  1  0
  1 26  1  0
  1 27  1  0
  3 28  1  0
  3 29  1  0
  3 30  1  0
  5 31  1  0
  6 32  1  0
  8 33  1  0
 12 34  1  0
 14 35  1  0
 15 36  1  0
 16 37  1  0
 17 38  1  0
 20 39  1  0
 21 40  1  0
 22 41  1  0
 23 42  1  0
M  END
>  <meeko>  (4) 
{"is_sidechain": false}

>  <vina_affinity_kcal_mol>  (4) 
-7.714

>  <pose_rank>  (4) 
4

$$$$

     RDKit          3D

 42 45  0  0  0  0  0  0  0  0999 V2000
  -37.7950  149.1870    3.3490 C   0  0  0  0  0  0  0  0  0  0  0  0
  -37.0920  148.1850    2.5400 N   0  0  0  0  0  0  0  0  0  0  0  0
  -36.6450  147.0120    3.2880 C   0  0  0  0  0  0  0  0  0  0  0  0
  -37.8370  147.8910    1.3630 C   0  0  0  0  0  0  0  0  0  0  0  0
  -39.2290  147.7230    1.4120 C   0  0  0  0  0  0  0  0  0  0  0  0
  -39.9610  147.4720    0.2550 C   0  0  0  0  0  0  0  0  0  0  0  0
  -39.3220  147.3980   -0.9870 C   0  0  0  0  0  0  0  0  0  0  0  0
  -40.1500  147.0970   -2.1670 C   0  0  0  0  0  0  0  0  0  0  0  0
  -40.4620  145.8720   -2.6150 C   0  0  0  0  0  0  0  0  0  0  0  0
  -40.0500  144.5410   -2.0350 C   0  0  0  0  0  0  0  0  0  0  0  0
  -39.3440  144.3110   -1.0730 O   0  0  0  0  0  0  0  0  0  0  0  0
  -40.6520  143.5960   -2.8540 N   0  0  0  0  0  0  0  0  0  0  0  0
  -41.3850  144.1950   -3.8730 C   0  0  0  0  0  0  0  0  0  0  0  0
  -42.1050  143.5550   -4.8610 C   0  0  0  0  0  0  0  0  0  0  0  0
  -42.7700  144.3580   -5.7920 C   0  0  0  0  0  0  0  0  0  0  0  0
  -42.6980  145.7620   -5.7120 C   0  0  0  0  0  0  0  0  0  0  0  0
  -41.9620  146.3880   -4.7000 C   0  0  0  0  0  0  0  0  0  0  0  0
  -41.3060  145.5880   -3.7820 C   0  0  0  0  0  0  0  0  0  0  0  0
  -37.9160  147.5660   -1.0810 C   0  0  0  0  0  0  0  0  0  0  0  0
  -37.2170  147.5020   -2.3130 C   0  0  0  0  0  0  0  0  0  0  0  0
  -35.8330  147.6590   -2.3860 C   0  0  0  0  0  0  0  0  0  0  0  0
  -35.1060  147.8850   -1.2290 C   0  0  0  0  0  0  0  0  0  0  0  0
  -35.7680  147.9570   -0.0030 C   0  0  0  0  0  0  0  0  0  0  0  0
  -37.1700  147.8110    0.1060 C   0  0  0  0  0  0  0  0  0  0  0  0
  -37.6423  148.9693    4.4164 H   0  0  0  0  0  0  0  0  0  0  0  0
  -37.3997  150.1873    3.1186 H   0  0  0  0  0  0  0  0  0  0  0  0
  -38.8701  149.1556    3.1186 H   0  0  0  0  0  0  0  0  0  0  0  0
  -36.7219  147.2137    4.3666 H   0  0  0  0  0  0  0  0  0  0  0  0
  -37.2776  146.1498    3.0302 H   0  0  0  0  0  0  0  0  0  0  0  0
  -35.5990  146.7894    3.0302 H   0  0  0  0  0  0  0  0  0  0  0  0
  -39.7495  147.7906    2.3787 H   0  0  0  0  0  0  0  0  0  0  0  0
  -41.0501  147.3308    0.3179 H   0  0  0  0  0  0  0  0  0  0  0  0
  -40.5481  147.9532   -2.7313 H   0  0  0  0  0  0  0  0  0  0  0  0
  -40.5500  142.6050   -2.7010 H   0  0  0  0  0  0  0  0  0  0  0  0
  -42.1537  142.4573   -4.9138 H   0  0  0  0  0  0  0  0  0  0  0  0
  -43.3558  143.8881   -6.5957 H   0  0  0  0  0  0  0  0  0  0  0  0
  -43.2279  146.3753   -6.4557 H   0  0  0  0  0  0  0  0  0  0  0  0
  -41.9067  147.4848   -4.6363 H   0  0  0  0  0  0  0  0  0  0  0  0
  -37.7832  147.3232   -3.2390 H   0  0  0  0  0  0  0  0  0  0  0  0
  -35.3212  147.6036   -3.3581 H   0  0  0  0  0  0  0  0  0  0  0  0
  -34.0138  148.0069   -1.2764 H   0  0  0  0  0  0  0  0  0  0  0  0
  -35.1794  148.1333    0.9094 H   0  0  0  0  0  0  0  0  0  0  0  0
  1  2  1  0
  2  3  1  0
  2  4  1  0
  4  5  2  0
  5  6  1  0
  6  7  2  0
  7  8  1  0
  8  9  2  0
  9 10  1  0
 10 11  2  0
 10 12  1  0
 12 13  1  0
 13 14  2  0
 14 15  1  0
 15 16  2  0
 16 17  1  0
 17 18  2  0
  7 19  1  0
 19 20  2  0
 20 21  1  0
 21 22  2  0
 22 23  1  0
 23 24  2  0
 24  4  1  0
 18  9  1  0
 24 19  1  0
 18 13  1  0
  1 25  1  0
  1 26  1  0
  1 27  1  0
  3 28  1  0
  3 29  1  0
  3 30  1  0
  5 31  1  0
  6 32  1  0
  8 33  1  0
 12 34  1  0
 14 35  1  0
 15 36  1  0
 16 37  1  0
 17 38  1  0
 20 39  1  0
 21 40  1  0
 22 41  1  0
 23 42  1  0
M  END
>  <meeko>  (5) 
{"is_sidechain": false}

>  <vina_affinity_kcal_mol>  (5) 
-7.666

>  <pose_rank>  (5) 
5

$$$$

     RDKit          3D

 42 45  0  0  0  0  0  0  0  0999 V2000
  -38.6220  162.3090   -0.2240 C   0  0  0  0  0  0  0  0  0  0  0  0
  -39.4350  161.1610   -0.6440 N   0  0  0  0  0  0  0  0  0  0  0  0
  -39.3720  160.8690   -2.0750 C   0  0  0  0  0  0  0  0  0  0  0  0
  -39.1830  160.0440    0.2020 C   0  0  0  0  0  0  0  0  0  0  0  0
  -37.9130  159.4520    0.2590 C   0  0  0  0  0  0  0  0  0  0  0  0
  -37.6600  158.3830    1.1150 C   0  0  0  0  0  0  0  0  0  0  0  0
  -38.6660  157.8870    1.9490 C   0  0  0  0  0  0  0  0  0  0  0  0
  -38.3410  156.7340    2.8050 C   0  0  0  0  0  0  0  0  0  0  0  0
  -37.7350  156.7900    4.0000 C   0  0  0  0  0  0  0  0  0  0  0  0
  -37.2510  158.0150    4.7370 C   0  0  0  0  0  0  0  0  0  0  0  0
  -37.2900  159.1800    4.3940 O   0  0  0  0  0  0  0  0  0  0  0  0
  -36.7240  157.5290    5.9250 N   0  0  0  0  0  0  0  0  0  0  0  0
  -36.8260  156.1440    6.0010 C   0  0  0  0  0  0  0  0  0  0  0  0
  -36.4020  155.3380    7.0380 C   0  0  0  0  0  0  0  0  0  0  0  0
  -36.6030  153.9620    6.9040 C   0  0  0  0  0  0  0  0  0  0  0  0
  -37.2140  153.4330    5.7510 C   0  0  0  0  0  0  0  0  0  0  0  0
  -37.6360  154.2700    4.7130 C   0  0  0  0  0  0  0  0  0  0  0  0
  -37.4340  155.6320    4.8510 C   0  0  0  0  0  0  0  0  0  0  0  0
  -39.9650  158.4600    1.9240 C   0  0  0  0  0  0  0  0  0  0  0  0
  -41.0220  157.9980    2.7480 C   0  0  0  0  0  0  0  0  0  0  0  0
  -42.2950  158.5650    2.7040 C   0  0  0  0  0  0  0  0  0  0  0  0
  -42.5490  159.6130    1.8330 C   0  0  0  0  0  0  0  0  0  0  0  0
  -41.5260  160.0910    1.0150 C   0  0  0  0  0  0  0  0  0  0  0  0
  -40.2230  159.5440    1.0400 C   0  0  0  0  0  0  0  0  0  0  0  0
  -38.5904  162.3536    0.8746 H   0  0  0  0  0  0  0  0  0  0  0  0
  -37.6003  162.1977   -0.6160 H   0  0  0  0  0  0  0  0  0  0  0  0
  -39.0662  163.2359   -0.6160 H   0  0  0  0  0  0  0  0  0  0  0  0
  -39.1421  159.8034   -2.2220 H   0  0  0  0  0  0  0  0  0  0  0  0
  -40.3412  161.1025   -2.5399 H   0  0  0  0  0  0  0  0  0  0  0  0
  -38.5853  161.4814   -2.5399 H   0  0  0  0  0  0  0  0  0  0  0  0
  -37.1056  159.8372   -0.3811 H   0  0  0  0  0  0  0  0  0  0  0  0
  -36.6600  157.9251    1.1349 H   0  0  0  0  0  0  0  0  0  0  0  0
  -38.6201  155.7379    2.4310 H   0  0  0  0  0  0  0  0  0  0  0  0
  -36.3240  158.1340    6.6260 H   0  0  0  0  0  0  0  0  0  0  0  0
  -35.9250  155.7620    7.9340 H   0  0  0  0  0  0  0  0  0  0  0  0
  -36.2804  153.2843    7.7082 H   0  0  0  0  0  0  0  0  0  0  0  0
  -37.3615  152.3463    5.6654 H   0  0  0  0  0  0  0  0  0  0  0  0
  -38.1148  153.8574    3.8127 H   0  0  0  0  0  0  0  0  0  0  0  0
  -40.8321  157.1670    3.4432 H   0  0  0  0  0  0  0  0  0  0  0  0
  -43.0935  158.1828    3.3569 H   0  0  0  0  0  0  0  0  0  0  0  0
  -43.5510  160.0646    1.7874 H   0  0  0  0  0  0  0  0  0  0  0  0
  -41.7403  160.9220    0.3269 H   0  0  0  0  0  0  0  0  0  0  0  0
  1  2  1  0
  2  3  1  0
  2  4  1  0
  4  5  2  0
  5  6  1  0
  6  7  2  0
  7  8  1  0
  8  9  2  0
  9 10  1  0
 10 11  2  0
 10 12  1  0
 12 13  1  0
 13 14  2  0
 14 15  1  0
 15 16  2  0
 16 17  1  0
 17 18  2  0
  7 19  1  0
 19 20  2  0
 20 21  1  0
 21 22  2  0
 22 23  1  0
 23 24  2  0
 24  4  1  0
 18  9  1  0
 24 19  1  0
 18 13  1  0
  1 25  1  0
  1 26  1  0
  1 27  1  0
  3 28  1  0
  3 29  1  0
  3 30  1  0
  5 31  1  0
  6 32  1  0
  8 33  1  0
 12 34  1  0
 14 35  1  0
 15 36  1  0
 16 37  1  0
 17 38  1  0
 20 39  1  0
 21 40  1  0
 22 41  1  0
 23 42  1  0
M  END
>  <meeko>  (6) 
{"is_sidechain": false}

>  <vina_affinity_kcal_mol>  (6) 
-7.581

>  <pose_rank>  (6) 
6

$$$$

     RDKit          3D

 42 45  0  0  0  0  0  0  0  0999 V2000
  -38.2760  165.4410  -10.9030 C   0  0  0  0  0  0  0  0  0  0  0  0
  -37.2990  165.6590   -9.8300 N   0  0  0  0  0  0  0  0  0  0  0  0
  -37.0760  167.0640   -9.4940 C   0  0  0  0  0  0  0  0  0  0  0  0
  -37.5950  164.8220   -8.7180 C   0  0  0  0  0  0  0  0  0  0  0  0
  -38.1960  165.3420   -7.5620 C   0  0  0  0  0  0  0  0  0  0  0  0
  -38.5190  164.5150   -6.4890 C   0  0  0  0  0  0  0  0  0  0  0  0
  -38.2630  163.1420   -6.5490 C   0  0  0  0  0  0  0  0  0  0  0  0
  -38.5980  162.3300   -5.3670 C   0  0  0  0  0  0  0  0  0  0  0  0
  -38.6350  162.7670   -4.1000 C   0  0  0  0  0  0  0  0  0  0  0  0
  -38.3500  164.1600   -3.5910 C   0  0  0  0  0  0  0  0  0  0  0  0
  -38.0120  165.1470   -4.2130 O   0  0  0  0  0  0  0  0  0  0  0  0
  -38.5510  164.0840   -2.2200 N   0  0  0  0  0  0  0  0  0  0  0  0
  -38.9240  162.8030   -1.8270 C   0  0  0  0  0  0  0  0  0  0  0  0
  -39.1990  162.3770   -0.5440 C   0  0  0  0  0  0  0  0  0  0  0  0
  -39.5550  161.0360   -0.3750 C   0  0  0  0  0  0  0  0  0  0  0  0
  -39.6260  160.1670   -1.4800 C   0  0  0  0  0  0  0  0  0  0  0  0
  -39.3430  160.6220   -2.7730 C   0  0  0  0  0  0  0  0  0  0  0  0
  -38.9910  161.9500   -2.9330 C   0  0  0  0  0  0  0  0  0  0  0  0
  -37.6580  162.5750   -7.7010 C   0  0  0  0  0  0  0  0  0  0  0  0
  -37.3770  161.1910   -7.8170 C   0  0  0  0  0  0  0  0  0  0  0  0
  -36.7730  160.6510   -8.9530 C   0  0  0  0  0  0  0  0  0  0  0  0
  -36.4320  161.4820  -10.0080 C   0  0  0  0  0  0  0  0  0  0  0  0
  -36.7020  162.8480   -9.9240 C   0  0  0  0  0  0  0  0  0  0  0  0
  -37.3200  163.4250   -8.7910 C   0  0  0  0  0  0  0  0  0  0  0  0
  -39.2602  165.2214  -10.4636 H   0  0  0  0  0  0  0  0  0  0  0  0
  -38.3457  166.3457  -11.5248 H   0  0  0  0  0  0  0  0  0  0  0  0
  -37.9545  164.5925  -11.5248 H   0  0  0  0  0  0  0  0  0  0  0  0
  -37.0574  167.1810   -8.4004 H   0  0  0  0  0  0  0  0  0  0  0  0
  -36.1143  167.3934   -9.9144 H   0  0  0  0  0  0  0  0  0  0  0  0
  -37.8884  167.6749   -9.9144 H   0  0  0  0  0  0  0  0  0  0  0  0
  -38.4153  166.4183   -7.5022 H   0  0  0  0  0  0  0  0  0  0  0  0
  -38.9791  164.9455   -5.5873 H   0  0  0  0  0  0  0  0  0  0  0  0
  -38.8394  161.2707   -5.5389 H   0  0  0  0  0  0  0  0  0  0  0  0
  -38.4320  164.8790   -1.6120 H   0  0  0  0  0  0  0  0  0  0  0  0
  -39.1404  163.0654    0.3120 H   0  0  0  0  0  0  0  0  0  0  0  0
  -39.7820  160.6558    0.6319 H   0  0  0  0  0  0  0  0  0  0  0  0
  -39.9080  159.1151   -1.3251 H   0  0  0  0  0  0  0  0  0  0  0  0
  -39.3989  159.9432   -3.6368 H   0  0  0  0  0  0  0  0  0  0  0  0
  -37.6433  160.5216   -6.9857 H   0  0  0  0  0  0  0  0  0  0  0  0
  -36.5687  159.5717   -9.0107 H   0  0  0  0  0  0  0  0  0  0  0  0
  -35.9513  161.0671  -10.9062 H   0  0  0  0  0  0  0  0  0  0  0  0
  -36.4249  163.4977  -10.7673 H   0  0  0  0  0  0  0  0  0  0  0  0
  1  2  1  0
  2  3  1  0
  2  4  1  0
  4  5  2  0
  5  6  1  0
  6  7  2  0
  7  8  1  0
  8  9  2  0
  9 10  1  0
 10 11  2  0
 10 12  1  0
 12 13  1  0
 13 14  2  0
 14 15  1  0
 15 16  2  0
 16 17  1  0
 17 18  2  0
  7 19  1  0
 19 20  2  0
 20 21  1  0
 21 22  2  0
 22 23  1  0
 23 24  2  0
 24  4  1  0
 18  9  1  0
 24 19  1  0
 18 13  1  0
  1 25  1  0
  1 26  1  0
  1 27  1  0
  3 28  1  0
  3 29  1  0
  3 30  1  0
  5 31  1  0
  6 32  1  0
  8 33  1  0
 12 34  1  0
 14 35  1  0
 15 36  1  0
 16 37  1  0
 17 38  1  0
 20 39  1  0
 21 40  1  0
 22 41  1  0
 23 42  1  0
M  END
>  <meeko>  (7) 
{"is_sidechain": false}

>  <vina_affinity_kcal_mol>  (7) 
-7.574

>  <pose_rank>  (7) 
7

$$$$

     RDKit          3D

 42 45  0  0  0  0  0  0  0  0999 V2000
  -35.1560  157.6000    4.9980 C   0  0  0  0  0  0  0  0  0  0  0  0
  -35.3530  157.2100    6.3990 N   0  0  0  0  0  0  0  0  0  0  0  0
  -35.9230  158.2590    7.2430 C   0  0  0  0  0  0  0  0  0  0  0  0
  -36.0250  155.9580    6.4720 C   0  0  0  0  0  0  0  0  0  0  0  0
  -37.4240  155.8920    6.5600 C   0  0  0  0  0  0  0  0  0  0  0  0
  -38.0820  154.6670    6.5940 C   0  0  0  0  0  0  0  0  0  0  0  0
  -37.3610  153.4700    6.5250 C   0  0  0  0  0  0  0  0  0  0  0  0
  -38.1160  152.2090    6.5990 C   0  0  0  0  0  0  0  0  0  0  0  0
  -38.6910  151.5760    5.5650 C   0  0  0  0  0  0  0  0  0  0  0  0
  -38.7030  151.9930    4.1140 C   0  0  0  0  0  0  0  0  0  0  0  0
  -38.2220  152.9830    3.5990 O   0  0  0  0  0  0  0  0  0  0  0  0
  -39.4060  150.9890    3.4630 N   0  0  0  0  0  0  0  0  0  0  0  0
  -39.8300  150.0040    4.3490 C   0  0  0  0  0  0  0  0  0  0  0  0
  -40.5510  148.8690    4.0410 C   0  0  0  0  0  0  0  0  0  0  0  0
  -40.8750  148.0100    5.0940 C   0  0  0  0  0  0  0  0  0  0  0  0
  -40.4740  148.3040    6.4110 C   0  0  0  0  0  0  0  0  0  0  0  0
  -39.7420  149.4610    6.6990 C   0  0  0  0  0  0  0  0  0  0  0  0
  -39.4240  150.3070    5.6520 C   0  0  0  0  0  0  0  0  0  0  0  0
  -35.9450  153.4930    6.4320 C   0  0  0  0  0  0  0  0  0  0  0  0
  -35.1630  152.3120    6.3580 C   0  0  0  0  0  0  0  0  0  0  0  0
  -33.7710  152.3510    6.2770 C   0  0  0  0  0  0  0  0  0  0  0  0
  -33.1190  153.5730    6.2680 C   0  0  0  0  0  0  0  0  0  0  0  0
  -33.8630  154.7510    6.3340 C   0  0  0  0  0  0  0  0  0  0  0  0
  -35.2740  154.7470    6.4090 C   0  0  0  0  0  0  0  0  0  0  0  0
  -34.6604  158.5812    4.9567 H   0  0  0  0  0  0  0  0  0  0  0  0
  -34.5283  156.8506    4.4936 H   0  0  0  0  0  0  0  0  0  0  0  0
  -36.1316  157.6605    4.4936 H   0  0  0  0  0  0  0  0  0  0  0  0
  -35.7801  157.9960    8.3015 H   0  0  0  0  0  0  0  0  0  0  0  0
  -35.4197  159.2139    7.0312 H   0  0  0  0  0  0  0  0  0  0  0  0
  -36.9980  158.3563    7.0312 H   0  0  0  0  0  0  0  0  0  0  0  0
  -38.0088  156.8227    6.6027 H   0  0  0  0  0  0  0  0  0  0  0  0
  -39.1786  154.6391    6.6758 H   0  0  0  0  0  0  0  0  0  0  0  0
  -38.2181  151.7438    7.5905 H   0  0  0  0  0  0  0  0  0  0  0  0
  -39.5710  151.0040    2.4690 H   0  0  0  0  0  0  0  0  0  0  0  0
  -40.8584  148.6492    3.0080 H   0  0  0  0  0  0  0  0  0  0  0  0
  -41.4496  147.0941    4.8919 H   0  0  0  0  0  0  0  0  0  0  0  0
  -40.7400  147.6141    7.2254 H   0  0  0  0  0  0  0  0  0  0  0  0
  -39.4286  149.6911    7.7280 H   0  0  0  0  0  0  0  0  0  0  0  0
  -35.6696  151.3356    6.3647 H   0  0  0  0  0  0  0  0  0  0  0  0
  -33.1941  151.4161    6.2206 H   0  0  0  0  0  0  0  0  0  0  0  0
  -32.0213  153.6142    6.2092 H   0  0  0  0  0  0  0  0  0  0  0  0
  -33.3337  155.7152    6.3274 H   0  0  0  0  0  0  0  0  0  0  0  0
  1  2  1  0
  2  3  1  0
  2  4  1  0
  4  5  2  0
  5  6  1  0
  6  7  2  0
  7  8  1  0
  8  9  2  0
  9 10  1  0
 10 11  2  0
 10 12  1  0
 12 13  1  0
 13 14  2  0
 14 15  1  0
 15 16  2  0
 16 17  1  0
 17 18  2  0
  7 19  1  0
 19 20  2  0
 20 21  1  0
 21 22  2  0
 22 23  1  0
 23 24  2  0
 24  4  1  0
 18  9  1  0
 24 19  1  0
 18 13  1  0
  1 25  1  0
  1 26  1  0
  1 27  1  0
  3 28  1  0
  3 29  1  0
  3 30  1  0
  5 31  1  0
  6 32  1  0
  8 33  1  0
 12 34  1  0
 14 35  1  0
 15 36  1  0
 16 37  1  0
 17 38  1  0
 20 39  1  0
 21 40  1  0
 22 41  1  0
 23 42  1  0
M  END
>  <meeko>  (8) 
{"is_sidechain": false}

>  <vina_affinity_kcal_mol>  (8) 
-7.545

>  <pose_rank>  (8) 
8

$$$$

     RDKit          3D

 42 45  0  0  0  0  0  0  0  0999 V2000
  -40.5040  159.7260   -0.9590 C   0  0  0  0  0  0  0  0  0  0  0  0
  -39.1680  159.6050   -1.5530 N   0  0  0  0  0  0  0  0  0  0  0  0
  -38.7550  158.2310   -1.8320 C   0  0  0  0  0  0  0  0  0  0  0  0
  -39.0350  160.4990   -2.6520 C   0  0  0  0  0  0  0  0  0  0  0  0
  -39.1350  160.0410   -3.9740 C   0  0  0  0  0  0  0  0  0  0  0  0
  -39.0420  160.9230   -5.0470 C   0  0  0  0  0  0  0  0  0  0  0  0
  -38.8610  162.2920   -4.8270 C   0  0  0  0  0  0  0  0  0  0  0  0
  -38.7360  163.1650   -6.0060 C   0  0  0  0  0  0  0  0  0  0  0  0
  -37.8950  162.9820   -7.0340 C   0  0  0  0  0  0  0  0  0  0  0  0
  -36.8960  161.8650   -7.2250 C   0  0  0  0  0  0  0  0  0  0  0  0
  -36.6400  160.9340   -6.4890 O   0  0  0  0  0  0  0  0  0  0  0  0
  -36.3010  162.1290   -8.4510 N   0  0  0  0  0  0  0  0  0  0  0  0
  -36.8180  163.2810   -9.0340 C   0  0  0  0  0  0  0  0  0  0  0  0
  -36.4530  163.8320  -10.2450 C   0  0  0  0  0  0  0  0  0  0  0  0
  -37.1050  165.0040  -10.6390 C   0  0  0  0  0  0  0  0  0  0  0  0
  -38.0910  165.5870   -9.8220 C   0  0  0  0  0  0  0  0  0  0  0  0
  -38.4440  165.0110   -8.5970 C   0  0  0  0  0  0  0  0  0  0  0  0
  -37.7960  163.8500   -8.2130 C   0  0  0  0  0  0  0  0  0  0  0  0
  -38.7570  162.7980   -3.5040 C   0  0  0  0  0  0  0  0  0  0  0  0
  -38.5740  164.1750   -3.2230 C   0  0  0  0  0  0  0  0  0  0  0  0
  -38.4650  164.6550   -1.9180 C   0  0  0  0  0  0  0  0  0  0  0  0
  -38.5340  163.7690   -0.8540 C   0  0  0  0  0  0  0  0  0  0  0  0
  -38.7190  162.4090   -1.1010 C   0  0  0  0  0  0  0  0  0  0  0  0
  -38.8420  161.8910   -2.4110 C   0  0  0  0  0  0  0  0  0  0  0  0
  -40.4197  159.7184    0.1377 H   0  0  0  0  0  0  0  0  0  0  0  0
  -40.9660  160.6697   -1.2847 H   0  0  0  0  0  0  0  0  0  0  0  0
  -41.1280  158.8807   -1.2847 H   0  0  0  0  0  0  0  0  0  0  0  0
  -38.5944  157.6967   -0.8840 H   0  0  0  0  0  0  0  0  0  0  0  0
  -39.5400  157.7226   -2.4110 H   0  0  0  0  0  0  0  0  0  0  0  0
  -37.8198  158.2396   -2.4110 H   0  0  0  0  0  0  0  0  0  0  0  0
  -39.2892  158.9689   -4.1657 H   0  0  0  0  0  0  0  0  0  0  0  0
  -39.1114  160.5401   -6.0759 H   0  0  0  0  0  0  0  0  0  0  0  0
  -39.3919  164.0471   -6.0471 H   0  0  0  0  0  0  0  0  0  0  0  0
  -35.5860  161.5360   -8.8420 H   0  0  0  0  0  0  0  0  0  0  0  0
  -35.6801  163.3678  -10.8751 H   0  0  0  0  0  0  0  0  0  0  0  0
  -36.8444  165.4755  -11.5980 H   0  0  0  0  0  0  0  0  0  0  0  0
  -38.5917  166.5094  -10.1514 H   0  0  0  0  0  0  0  0  0  0  0  0
  -39.2140  165.4675   -7.9577 H   0  0  0  0  0  0  0  0  0  0  0  0
  -38.5162  164.8869   -4.0596 H   0  0  0  0  0  0  0  0  0  0  0  0
  -38.3251  165.7305   -1.7341 H   0  0  0  0  0  0  0  0  0  0  0  0
  -38.4434  164.1365    0.1788 H   0  0  0  0  0  0  0  0  0  0  0  0
  -38.7710  161.7161   -0.2483 H   0  0  0  0  0  0  0  0  0  0  0  0
  1  2  1  0
  2  3  1  0
  2  4  1  0
  4  5  2  0
  5  6  1  0
  6  7  2  0
  7  8  1  0
  8  9  2  0
  9 10  1  0
 10 11  2  0
 10 12  1  0
 12 13  1  0
 13 14  2  0
 14 15  1  0
 15 16  2  0
 16 17  1  0
 17 18  2  0
  7 19  1  0
 19 20  2  0
 20 21  1  0
 21 22  2  0
 22 23  1  0
 23 24  2  0
 24  4  1  0
 18  9  1  0
 24 19  1  0
 18 13  1  0
  1 25  1  0
  1 26  1  0
  1 27  1  0
  3 28  1  0
  3 29  1  0
  3 30  1  0
  5 31  1  0
  6 32  1  0
  8 33  1  0
 12 34  1  0
 14 35  1  0
 15 36  1  0
 16 37  1  0
 17 38  1  0
 20 39  1  0
 21 40  1  0
 22 41  1  0
 23 42  1  0
M  END
>  <meeko>  (9) 
{"is_sidechain": false}

>  <vina_affinity_kcal_mol>  (9) 
-7.444

>  <pose_rank>  (9) 
9

$$$$

     RDKit          3D

 42 45  0  0  0  0  0  0  0  0999 V2000
  -39.6090  145.8210    4.9830 C   0  0  0  0  0  0  0  0  0  0  0  0
  -40.5500  146.9070    5.2800 N   0  0  0  0  0  0  0  0  0  0  0  0
  -41.5640  146.5700    6.2770 C   0  0  0  0  0  0  0  0  0  0  0  0
  -39.8430  148.1150    5.5360 C   0  0  0  0  0  0  0  0  0  0  0  0
  -39.1640  148.3120    6.7470 C   0  0  0  0  0  0  0  0  0  0  0  0
  -38.4420  149.4790    6.9820 C   0  0  0  0  0  0  0  0  0  0  0  0
  -38.3670  150.4770    6.0040 C   0  0  0  0  0  0  0  0  0  0  0  0
  -37.6160  151.7000    6.3290 C   0  0  0  0  0  0  0  0  0  0  0  0
  -36.3040  151.8930    6.1260 C   0  0  0  0  0  0  0  0  0  0  0  0
  -35.3060  150.9270    5.5330 C   0  0  0  0  0  0  0  0  0  0  0  0
  -35.4810  149.7890    5.1450 O   0  0  0  0  0  0  0  0  0  0  0  0
  -34.1040  151.6200    5.5260 N   0  0  0  0  0  0  0  0  0  0  0  0
  -34.2480  152.9000    6.0490 C   0  0  0  0  0  0  0  0  0  0  0  0
  -33.2590  153.8510    6.1920 C   0  0  0  0  0  0  0  0  0  0  0  0
  -33.6270  155.0790    6.7490 C   0  0  0  0  0  0  0  0  0  0  0  0
  -34.9560  155.3200    7.1440 C   0  0  0  0  0  0  0  0  0  0  0  0
  -35.9420  154.3400    6.9890 C   0  0  0  0  0  0  0  0  0  0  0  0
  -35.5710  153.1260    6.4370 C   0  0  0  0  0  0  0  0  0  0  0  0
  -39.0380  150.3150    4.7630 C   0  0  0  0  0  0  0  0  0  0  0  0
  -38.9960  151.2920    3.7370 C   0  0  0  0  0  0  0  0  0  0  0  0
  -39.6680  151.1220    2.5270 C   0  0  0  0  0  0  0  0  0  0  0  0
  -40.4050  149.9700    2.3080 C   0  0  0  0  0  0  0  0  0  0  0  0
  -40.4600  148.9890    3.2980 C   0  0  0  0  0  0  0  0  0  0  0  0
  -39.7840  149.1260    4.5320 C   0  0  0  0  0  0  0  0  0  0  0  0
  -39.2364  145.3910    5.9244 H   0  0  0  0  0  0  0  0  0  0  0  0
  -40.1214  145.0408    4.4010 H   0  0  0  0  0  0  0  0  0  0  0  0
  -38.7638  146.2171    4.4010 H   0  0  0  0  0  0  0  0  0  0  0  0
  -41.1470  146.7086    7.2854 H   0  0  0  0  0  0  0  0  0  0  0  0
  -42.4374  147.2262    6.1480 H   0  0  0  0  0  0  0  0  0  0  0  0
  -41.8709  145.5216    6.1480 H   0  0  0  0  0  0  0  0  0  0  0  0
  -39.2024  147.5330    7.5227 H   0  0  0  0  0  0  0  0  0  0  0  0
  -37.9266  149.6176    7.9438 H   0  0  0  0  0  0  0  0  0  0  0  0
  -38.1808  152.5300    6.7785 H   0  0  0  0  0  0  0  0  0  0  0  0
  -33.2500  151.2140    5.1760 H   0  0  0  0  0  0  0  0  0  0  0  0
  -32.2232  153.6511    5.8804 H   0  0  0  0  0  0  0  0  0  0  0  0
  -32.8694  155.8657    6.8800 H   0  0  0  0  0  0  0  0  0  0  0  0
  -35.2234  156.2934    7.5811 H   0  0  0  0  0  0  0  0  0  0  0  0
  -36.9812  154.5284    7.2966 H   0  0  0  0  0  0  0  0  0  0  0  0
  -38.4158  152.2122    3.9002 H   0  0  0  0  0  0  0  0  0  0  0  0
  -39.6130  151.8990    1.7503 H   0  0  0  0  0  0  0  0  0  0  0  0
  -40.9436  149.8296    1.3592 H   0  0  0  0  0  0  0  0  0  0  0  0
  -41.0489  148.0786    3.1124 H   0  0  0  0  0  0  0  0  0  0  0  0
  1  2  1  0
  2  3  1  0
  2  4  1  0
  4  5  2  0
  5  6  1  0
  6  7  2  0
  7  8  1  0
  8  9  2  0
  9 10  1  0
 10 11  2  0
 10 12  1  0
 12 13  1  0
 13 14  2  0
 14 15  1  0
 15 16  2  0
 16 17  1  0
 17 18  2  0
  7 19  1  0
 19 20  2  0
 20 21  1  0
 21 22  2  0
 22 23  1  0
 23 24  2  0
 24  4  1  0
 18  9  1  0
 24 19  1  0
 18 13  1  0
  1 25  1  0
  1 26  1  0
  1 27  1  0
  3 28  1  0
  3 29  1  0
  3 30  1  0
  5 31  1  0
  6 32  1  0
  8 33  1  0
 12 34  1  0
 14 35  1  0
 15 36  1  0
 16 37  1  0
 17 38  1  0
 20 39  1  0
 21 40  1  0
 22 41  1  0
 23 42  1  0
M  END
>  <meeko>  (10) 
{"is_sidechain": false}

>  <vina_affinity_kcal_mol>  (10) 
-7.239

>  <pose_rank>  (10) 
10

$$$$
