
     RDKit          3D

 56 58  0  0  0  0  0  0  0  0999 V2000
   -9.9580    7.4130  -22.3050 C   0  0  0  0  0  0  0  0  0  0  0  0
  -10.3470    6.9440  -20.9070 C   0  0  0  0  0  0  0  0  0  0  0  0
   -9.9550    7.8790  -19.8420 N   0  0  0  0  0  0  0  0  0  0  0  0
   -9.3920    9.1250  -20.3900 C   0  0  0  0  0  0  0  0  0  0  0  0
   -8.7830   10.0900  -19.3760 C   0  0  0  0  0  0  0  0  0  0  0  0
   -9.0850    7.2770  -18.8180 C   0  0  0  0  0  0  0  0  0  0  0  0
   -8.4340    5.9730  -19.3090 C   0  0  0  0  0  0  0  0  0  0  0  0
   -8.8250    4.8410  -18.4890 N   0  0  0  0  0  0  0  0  0  0  0  0
   -7.8950    4.1620  -17.7310 C   0  0  0  0  0  0  0  0  0  0  0  0
   -6.6900    4.3860  -17.7950 O   0  0  0  0  0  0  0  0  0  0  0  0
   -8.4680    3.1930  -16.7890 C   0  0  0  0  0  0  0  0  0  0  0  0
   -8.1180    1.8580  -16.6310 C   0  0  0  0  0  0  0  0  0  0  0  0
   -7.0830    1.0090  -17.2810 C   0  0  0  0  0  0  0  0  0  0  0  0
   -8.9140    1.3310  -15.6430 N   0  0  0  0  0  0  0  0  0  0  0  0
   -9.7410    2.2860  -15.1110 C   0  0  0  0  0  0  0  0  0  0  0  0
  -10.6340    2.0070  -14.0360 C   0  0  0  0  0  0  0  0  0  0  0  0
  -10.5870    1.0360  -13.1080 C   0  0  0  0  0  0  0  0  0  0  0  0
   -9.5900   -0.0770  -12.8830 C   0  0  0  0  0  0  0  0  0  0  0  0
   -8.5800   -0.3270  -13.5130 O   0  0  0  0  0  0  0  0  0  0  0  0
  -10.0570   -0.7770  -11.7830 N   0  0  0  0  0  0  0  0  0  0  0  0
  -11.2320   -0.2260  -11.2900 C   0  0  0  0  0  0  0  0  0  0  0  0
  -11.9600   -0.6730  -10.2040 C   0  0  0  0  0  0  0  0  0  0  0  0
  -13.1180    0.0330   -9.8790 C   0  0  0  0  0  0  0  0  0  0  0  0
  -13.5040    1.1480  -10.6380 C   0  0  0  0  0  0  0  0  0  0  0  0
  -14.6210    1.8070  -10.3030 F   0  0  0  0  0  0  0  0  0  0  0  0
  -12.7590    1.5870  -11.7330 C   0  0  0  0  0  0  0  0  0  0  0  0
  -11.6100    0.8850  -12.0540 C   0  0  0  0  0  0  0  0  0  0  0  0
   -9.4920    3.4630  -15.8100 C   0  0  0  0  0  0  0  0  0  0  0  0
  -10.1450    4.7910  -15.6050 C   0  0  0  0  0  0  0  0  0  0  0  0
   -9.2575    8.2575  -22.2267 H   0  0  0  0  0  0  0  0  0  0  0  0
   -9.4766    6.5865  -22.8483 H   0  0  0  0  0  0  0  0  0  0  0  0
  -10.8592    7.7333  -22.8483 H   0  0  0  0  0  0  0  0  0  0  0  0
  -11.4392    6.8175  -20.8740 H   0  0  0  0  0  0  0  0  0  0  0  0
   -9.8108    6.0015  -20.7222 H   0  0  0  0  0  0  0  0  0  0  0  0
   -8.6048    8.8509  -21.1078 H   0  0  0  0  0  0  0  0  0  0  0  0
  -10.2422    9.6624  -20.8355 H   0  0  0  0  0  0  0  0  0  0  0  0
   -9.0044    9.7392  -18.3572 H   0  0  0  0  0  0  0  0  0  0  0  0
   -7.6934   10.1337  -19.5201 H   0  0  0  0  0  0  0  0  0  0  0  0
   -9.2124   11.0924  -19.5201 H   0  0  0  0  0  0  0  0  0  0  0  0
   -8.2921    7.9943  -18.5594 H   0  0  0  0  0  0  0  0  0  0  0  0
   -9.7063    7.0377  -17.9424 H   0  0  0  0  0  0  0  0  0  0  0  0
   -8.7459    5.7868  -20.3473 H   0  0  0  0  0  0  0  0  0  0  0  0
   -7.3419    6.0863  -19.2422 H   0  0  0  0  0  0  0  0  0  0  0  0
   -9.7700    4.8180  -18.1330 H   0  0  0  0  0  0  0  0  0  0  0  0
   -6.4778    0.5125  -16.5082 H   0  0  0  0  0  0  0  0  0  0  0  0
   -7.5727    0.2490  -17.9076 H   0  0  0  0  0  0  0  0  0  0  0  0
   -6.4335    1.6379  -17.9076 H   0  0  0  0  0  0  0  0  0  0  0  0
   -8.8650    0.3650  -15.3350 H   0  0  0  0  0  0  0  0  0  0  0  0
  -11.4921    2.6902  -13.9532 H   0  0  0  0  0  0  0  0  0  0  0  0
   -9.5770   -1.5800  -11.4070 H   0  0  0  0  0  0  0  0  0  0  0  0
  -11.6397   -1.5487   -9.6204 H   0  0  0  0  0  0  0  0  0  0  0  0
  -13.7316   -0.2859   -9.0235 H   0  0  0  0  0  0  0  0  0  0  0  0
  -13.0741    2.4614  -12.3213 H   0  0  0  0  0  0  0  0  0  0  0  0
  -10.2425    4.9892  -14.5274 H   0  0  0  0  0  0  0  0  0  0  0  0
   -9.5307    5.5771  -16.0683 H   0  0  0  0  0  0  0  0  0  0  0  0
  -11.1426    4.7845  -16.0683 H   0  0  0  0  0  0  0  0  0  0  0  0
  1  2  1  0
  2  3  1  0
  3  4  1  0
  4  5  1  0
  3  6  1  0
  6  7  1  0
  7  8  1  0
  8  9  1  0
  9 10  2  0
  9 11  1  0
 11 12  2  0
 12 13  1  0
 12 14  1  0
 14 15  1  0
 15 16  1  0
 16 17  2  0
 17 18  1  0
 18 19  2  0
 18 20  1  0
 20 21  1  0
 21 22  1  0
 22 23  2  0
 23 24  1  0
 24 25  1  0
 24 26  2  0
 26 27  1  0
 15 28  2  0
 28 29  1  0
 28 11  1  0
 27 17  1  0
 27 21  2  0
  1 30  1  0
  1 31  1  0
  1 32  1  0
  2 33  1  0
  2 34  1  0
  4 35  1  0
  4 36  1  0
  5 37  1  0
  5 38  1  0
  5 39  1  0
  6 40  1  0
  6 41  1  0
  7 42  1  0
  7 43  1  0
  8 44  1  0
 13 45  1  0
 13 46  1  0
 13 47  1  0
 14 48  1  0
 16 49  1  0
 20 50  1  0
 22 51  1  0
 23 52  1  0
 26 53  1  0
 29 54  1  0
 29 55  1  0
 29 56  1  0
M  END
>  <meeko>  (1) 
{"is_sidechain": false}

>  <vina_affinity_kcal_mol>  (1) 
-8.627

>  <pose_rank>  (1) 
1

$$$$

     RDKit          3D

 56 58  0  0  0  0  0  0  0  0999 V2000
   -8.9000    9.8210  -19.5970 C   0  0  0  0  0  0  0  0  0  0  0  0
   -9.3930    8.5820  -18.8570 C   0  0  0  0  0  0  0  0  0  0  0  0
   -9.2140    7.3350  -19.6150 N   0  0  0  0  0  0  0  0  0  0  0  0
  -10.3300    7.0970  -20.5460 C   0  0  0  0  0  0  0  0  0  0  0  0
  -10.0200    7.2900  -22.0290 C   0  0  0  0  0  0  0  0  0  0  0  0
   -8.9360    6.1630  -18.7670 C   0  0  0  0  0  0  0  0  0  0  0  0
  -10.1770    5.2730  -18.5900 C   0  0  0  0  0  0  0  0  0  0  0  0
  -10.1340    4.5410  -17.3370 N   0  0  0  0  0  0  0  0  0  0  0  0
  -10.6840    5.0710  -16.1890 C   0  0  0  0  0  0  0  0  0  0  0  0
  -11.1230    6.2140  -16.1250 O   0  0  0  0  0  0  0  0  0  0  0  0
  -10.7640    4.1310  -15.0640 C   0  0  0  0  0  0  0  0  0  0  0  0
   -9.7360    3.3680  -14.5240 C   0  0  0  0  0  0  0  0  0  0  0  0
   -8.2850    3.2730  -14.8410 C   0  0  0  0  0  0  0  0  0  0  0  0
  -10.2610    2.6300  -13.4920 N   0  0  0  0  0  0  0  0  0  0  0  0
  -11.5880    2.9170  -13.3010 C   0  0  0  0  0  0  0  0  0  0  0  0
  -12.3540    2.3190  -12.2600 C   0  0  0  0  0  0  0  0  0  0  0  0
  -12.1720    1.1540  -11.6170 C   0  0  0  0  0  0  0  0  0  0  0  0
  -11.1090    0.0890  -11.7690 C   0  0  0  0  0  0  0  0  0  0  0  0
  -10.1580    0.0730  -12.5270 O   0  0  0  0  0  0  0  0  0  0  0  0
  -11.4330   -0.8920  -10.8470 N   0  0  0  0  0  0  0  0  0  0  0  0
  -12.5740   -0.5620  -10.1310 C   0  0  0  0  0  0  0  0  0  0  0  0
  -13.1700   -1.3140   -9.1350 C   0  0  0  0  0  0  0  0  0  0  0  0
  -14.3190   -0.7910   -8.5430 C   0  0  0  0  0  0  0  0  0  0  0  0
  -14.8270    0.4480   -8.9570 C   0  0  0  0  0  0  0  0  0  0  0  0
  -15.9320    0.9260   -8.3710 F   0  0  0  0  0  0  0  0  0  0  0  0
  -14.2160    1.1970   -9.9640 C   0  0  0  0  0  0  0  0  0  0  0  0
  -13.0760    0.6760  -10.5510 C   0  0  0  0  0  0  0  0  0  0  0  0
  -11.9370    3.8500  -14.2730 C   0  0  0  0  0  0  0  0  0  0  0  0
  -13.2760    4.4750  -14.4850 C   0  0  0  0  0  0  0  0  0  0  0  0
   -8.5954   10.5865  -18.8681 H   0  0  0  0  0  0  0  0  0  0  0  0
   -8.0400    9.5531  -20.2283 H   0  0  0  0  0  0  0  0  0  0  0  0
   -9.7090   10.2172  -20.2283 H   0  0  0  0  0  0  0  0  0  0  0  0
   -8.8373    8.4973  -17.9115 H   0  0  0  0  0  0  0  0  0  0  0  0
  -10.4736    8.7102  -18.6964 H   0  0  0  0  0  0  0  0  0  0  0  0
  -10.6696    6.0602  -20.4057 H   0  0  0  0  0  0  0  0  0  0  0  0
  -11.0868    7.8567  -20.3008 H   0  0  0  0  0  0  0  0  0  0  0  0
   -9.0907    7.8686  -22.1371 H   0  0  0  0  0  0  0  0  0  0  0  0
   -9.8983    6.3078  -22.5090 H   0  0  0  0  0  0  0  0  0  0  0  0
  -10.8477    7.8327  -22.5090 H   0  0  0  0  0  0  0  0  0  0  0  0
   -8.1364    5.5688  -19.2334 H   0  0  0  0  0  0  0  0  0  0  0  0
   -8.6339    6.5263  -17.7736 H   0  0  0  0  0  0  0  0  0  0  0  0
  -11.0759    5.9069  -18.6027 H   0  0  0  0  0  0  0  0  0  0  0  0
  -10.1990    4.5446  -19.4140 H   0  0  0  0  0  0  0  0  0  0  0  0
  -10.1120    3.5320  -17.3790 H   0  0  0  0  0  0  0  0  0  0  0  0
   -7.7071    3.2352  -13.9058 H   0  0  0  0  0  0  0  0  0  0  0  0
   -8.0964    2.3606  -15.4257 H   0  0  0  0  0  0  0  0  0  0  0  0
   -7.9790    4.1530  -15.4257 H   0  0  0  0  0  0  0  0  0  0  0  0
   -9.7180    1.9810  -12.9300 H   0  0  0  0  0  0  0  0  0  0  0  0
  -13.2286    2.9002  -11.9324 H   0  0  0  0  0  0  0  0  0  0  0  0
  -10.8820   -1.7300  -10.7300 H   0  0  0  0  0  0  0  0  0  0  0  0
  -12.7551   -2.2838   -8.8230 H   0  0  0  0  0  0  0  0  0  0  0  0
  -14.8292   -1.3535   -7.7472 H   0  0  0  0  0  0  0  0  0  0  0  0
  -14.6262    2.1675  -10.2800 H   0  0  0  0  0  0  0  0  0  0  0  0
  -13.7383    4.6908  -13.5105 H   0  0  0  0  0  0  0  0  0  0  0  0
  -13.1583    5.4112  -15.0504 H   0  0  0  0  0  0  0  0  0  0  0  0
  -13.9180    3.7835  -15.0504 H   0  0  0  0  0  0  0  0  0  0  0  0
  1  2  1  0
  2  3  1  0
  3  4  1  0
  4  5  1  0
  3  6  1  0
  6  7  1  0
  7  8  1  0
  8  9  1  0
  9 10  2  0
  9 11  1  0
 11 12  2  0
 12 13  1  0
 12 14  1  0
 14 15  1  0
 15 16  1  0
 16 17  2  0
 17 18  1  0
 18 19  2  0
 18 20  1  0
 20 21  1  0
 21 22  1  0
 22 23  2  0
 23 24  1  0
 24 25  1  0
 24 26  2  0
 26 27  1  0
 15 28  2  0
 28 29  1  0
 28 11  1  0
 27 17  1  0
 27 21  2  0
  1 30  1  0
  1 31  1  0
  1 32  1  0
  2 33  1  0
  2 34  1  0
  4 35  1  0
  4 36  1  0
  5 37  1  0
  5 38  1  0
  5 39  1  0
  6 40  1  0
  6 41  1  0
  7 42  1  0
  7 43  1  0
  8 44  1  0
 13 45  1  0
 13 46  1  0
 13 47  1  0
 14 48  1  0
 16 49  1  0
 20 50  1  0
 22 51  1  0
 23 52  1  0
 26 53  1  0
 29 54  1  0
 29 55  1  0
 29 56  1  0
M  END
>  <meeko>  (2) 
{"is_sidechain": false}

>  <vina_affinity_kcal_mol>  (2) 
-8.625

>  <pose_rank>  (2) 
2

$$$$

     RDKit          3D

 56 58  0  0  0  0  0  0  0  0999 V2000
  -15.3610   -2.5600   -9.1560 C   0  0  0  0  0  0  0  0  0  0  0  0
  -14.1330   -1.8150   -9.6660 C   0  0  0  0  0  0  0  0  0  0  0  0
  -13.7330   -0.6860   -8.8130 N   0  0  0  0  0  0  0  0  0  0  0  0
  -14.5760    0.4990   -9.0460 C   0  0  0  0  0  0  0  0  0  0  0  0
  -14.4790    1.1310  -10.4320 C   0  0  0  0  0  0  0  0  0  0  0  0
  -12.2960   -0.3710   -8.8840 C   0  0  0  0  0  0  0  0  0  0  0  0
  -11.5640   -1.2520   -9.9100 C   0  0  0  0  0  0  0  0  0  0  0  0
  -10.6850   -0.4650  -10.7560 N   0  0  0  0  0  0  0  0  0  0  0  0
  -10.4050   -0.8600  -12.0470 C   0  0  0  0  0  0  0  0  0  0  0  0
  -10.7710   -1.9360  -12.5100 O   0  0  0  0  0  0  0  0  0  0  0  0
   -9.6900    0.1410  -12.8480 C   0  0  0  0  0  0  0  0  0  0  0  0
   -8.3310    0.1790  -13.1370 C   0  0  0  0  0  0  0  0  0  0  0  0
   -7.2090   -0.7380  -12.8020 C   0  0  0  0  0  0  0  0  0  0  0  0
   -8.1000    1.2900  -13.9110 N   0  0  0  0  0  0  0  0  0  0  0  0
   -9.2660    1.9580  -14.1810 C   0  0  0  0  0  0  0  0  0  0  0  0
   -9.3060    3.1200  -15.0050 C   0  0  0  0  0  0  0  0  0  0  0  0
   -8.7190    3.3550  -16.1910 C   0  0  0  0  0  0  0  0  0  0  0  0
   -7.8310    2.4850  -17.0510 C   0  0  0  0  0  0  0  0  0  0  0  0
   -7.4590    1.3450  -16.8430 O   0  0  0  0  0  0  0  0  0  0  0  0
   -7.5180    3.2540  -18.1580 N   0  0  0  0  0  0  0  0  0  0  0  0
   -8.1120    4.5070  -18.0930 C   0  0  0  0  0  0  0  0  0  0  0  0
   -8.0100    5.5180  -19.0300 C   0  0  0  0  0  0  0  0  0  0  0  0
   -8.6940    6.7050  -18.7630 C   0  0  0  0  0  0  0  0  0  0  0  0
   -9.4460    6.8390  -17.5870 C   0  0  0  0  0  0  0  0  0  0  0  0
  -10.0920    7.9900  -17.3580 F   0  0  0  0  0  0  0  0  0  0  0  0
   -9.5390    5.8100  -16.6500 C   0  0  0  0  0  0  0  0  0  0  0  0
   -8.8610    4.6340  -16.9160 C   0  0  0  0  0  0  0  0  0  0  0  0
  -10.2820    1.2680  -13.5260 C   0  0  0  0  0  0  0  0  0  0  0  0
  -11.7370    1.6020  -13.5110 C   0  0  0  0  0  0  0  0  0  0  0  0
  -15.3597   -2.5592   -8.0560 H   0  0  0  0  0  0  0  0  0  0  0  0
  -16.2706   -2.0613   -9.5220 H   0  0  0  0  0  0  0  0  0  0  0  0
  -15.3389   -3.5971   -9.5220 H   0  0  0  0  0  0  0  0  0  0  0  0
  -13.2938   -2.5241   -9.7205 H   0  0  0  0  0  0  0  0  0  0  0  0
  -14.3938   -1.3990  -10.6503 H   0  0  0  0  0  0  0  0  0  0  0  0
  -15.6231    0.2034   -8.8841 H   0  0  0  0  0  0  0  0  0  0  0  0
  -14.2091    1.2644   -8.3463 H   0  0  0  0  0  0  0  0  0  0  0  0
  -14.3128    2.2136  -10.3305 H   0  0  0  0  0  0  0  0  0  0  0  0
  -13.6394    0.6812  -10.9822 H   0  0  0  0  0  0  0  0  0  0  0  0
  -15.4149    0.9537  -10.9822 H   0  0  0  0  0  0  0  0  0  0  0  0
  -12.1773    0.6838   -9.1726 H   0  0  0  0  0  0  0  0  0  0  0  0
  -11.8561   -0.5643   -7.8945 H   0  0  0  0  0  0  0  0  0  0  0  0
  -10.9656   -2.0033   -9.3737 H   0  0  0  0  0  0  0  0  0  0  0  0
  -12.3172   -1.7352  -10.5497 H   0  0  0  0  0  0  0  0  0  0  0  0
  -10.6320    0.5300  -10.5890 H   0  0  0  0  0  0  0  0  0  0  0  0
   -7.1133   -0.8162  -11.7090 H   0  0  0  0  0  0  0  0  0  0  0  0
   -7.4103   -1.7334  -13.2246 H   0  0  0  0  0  0  0  0  0  0  0  0
   -6.2736   -0.3426  -13.2246 H   0  0  0  0  0  0  0  0  0  0  0  0
   -7.1830    1.5560  -14.2560 H   0  0  0  0  0  0  0  0  0  0  0  0
   -9.9090    3.9510  -14.6103 H   0  0  0  0  0  0  0  0  0  0  0  0
   -6.9320    2.9160  -18.9070 H   0  0  0  0  0  0  0  0  0  0  0  0
   -7.4153    5.3925  -19.9468 H   0  0  0  0  0  0  0  0  0  0  0  0
   -8.6429    7.5391  -19.4783 H   0  0  0  0  0  0  0  0  0  0  0  0
  -10.1313    5.9296  -15.7308 H   0  0  0  0  0  0  0  0  0  0  0  0
  -12.0842    1.6817  -12.4703 H   0  0  0  0  0  0  0  0  0  0  0  0
  -11.8985    2.5606  -14.0258 H   0  0  0  0  0  0  0  0  0  0  0  0
  -12.3004    0.8098  -14.0258 H   0  0  0  0  0  0  0  0  0  0  0  0
  1  2  1  0
  2  3  1  0
  3  4  1  0
  4  5  1  0
  3  6  1  0
  6  7  1  0
  7  8  1  0
  8  9  1  0
  9 10  2  0
  9 11  1  0
 11 12  2  0
 12 13  1  0
 12 14  1  0
 14 15  1  0
 15 16  1  0
 16 17  2  0
 17 18  1  0
 18 19  2  0
 18 20  1  0
 20 21  1  0
 21 22  1  0
 22 23  2  0
 23 24  1  0
 24 25  1  0
 24 26  2  0
 26 27  1  0
 15 28  2  0
 28 29  1  0
 28 11  1  0
 27 17  1  0
 27 21  2  0
  1 30  1  0
  1 31  1  0
  1 32  1  0
  2 33  1  0
  2 34  1  0
  4 35  1  0
  4 36  1  0
  5 37  1  0
  5 38  1  0
  5 39  1  0
  6 40  1  0
  6 41  1  0
  7 42  1  0
  7 43  1  0
  8 44  1  0
 13 45  1  0
 13 46  1  0
 13 47  1  0
 14 48  1  0
 16 49  1  0
 20 50  1  0
 22 51  1  0
 23 52  1  0
 26 53  1  0
 29 54  1  0
 29 55  1  0
 29 56  1  0
M  END
>  <meeko>  (3) 
{"is_sidechain": false}

>  <vina_affinity_kcal_mol>  (3) 
-8.593

>  <pose_rank>  (3) 
3

$$$$

     RDKit          3D

 56 58  0  0  0  0  0  0  0  0999 V2000
  -12.5050   -5.7590   -9.5710 C   0  0  0  0  0  0  0  0  0  0  0  0
  -11.6780   -4.4940   -9.7760 C   0  0  0  0  0  0  0  0  0  0  0  0
  -12.2920   -3.2900   -9.1950 N   0  0  0  0  0  0  0  0  0  0  0  0
  -13.3590   -2.7520  -10.0570 C   0  0  0  0  0  0  0  0  0  0  0  0
  -14.7090   -2.5150   -9.3850 C   0  0  0  0  0  0  0  0  0  0  0  0
  -11.3160   -2.2590   -8.8060 C   0  0  0  0  0  0  0  0  0  0  0  0
  -10.0800   -2.2620   -9.7190 C   0  0  0  0  0  0  0  0  0  0  0  0
  -10.0640   -1.1070  -10.5980 N   0  0  0  0  0  0  0  0  0  0  0  0
  -10.4970   -1.2050  -11.9040 C   0  0  0  0  0  0  0  0  0  0  0  0
  -10.7980   -2.2720  -12.4290 O   0  0  0  0  0  0  0  0  0  0  0  0
  -10.6340    0.0820  -12.5970 C   0  0  0  0  0  0  0  0  0  0  0  0
  -11.5190    1.1120  -12.3020 C   0  0  0  0  0  0  0  0  0  0  0  0
  -12.5370    1.2820  -11.2300 C   0  0  0  0  0  0  0  0  0  0  0  0
  -11.3030    2.1200  -13.2090 N   0  0  0  0  0  0  0  0  0  0  0  0
  -10.2740    1.8120  -14.0590 C   0  0  0  0  0  0  0  0  0  0  0  0
   -9.8190    2.7130  -15.0640 C   0  0  0  0  0  0  0  0  0  0  0  0
  -10.3300    3.8930  -15.4570 C   0  0  0  0  0  0  0  0  0  0  0  0
  -11.5400    4.6620  -14.9790 C   0  0  0  0  0  0  0  0  0  0  0  0
  -12.3260    4.3640  -14.0990 O   0  0  0  0  0  0  0  0  0  0  0  0
  -11.5810    5.8080  -15.7550 N   0  0  0  0  0  0  0  0  0  0  0  0
  -10.5320    5.8480  -16.6620 C   0  0  0  0  0  0  0  0  0  0  0  0
  -10.2730    6.8480  -17.5800 C   0  0  0  0  0  0  0  0  0  0  0  0
   -9.1570    6.6860  -18.4010 C   0  0  0  0  0  0  0  0  0  0  0  0
   -8.3470    5.5470  -18.2770 C   0  0  0  0  0  0  0  0  0  0  0  0
   -7.2810    5.4180  -19.0780 F   0  0  0  0  0  0  0  0  0  0  0  0
   -8.6210    4.5450  -17.3450 C   0  0  0  0  0  0  0  0  0  0  0  0
   -9.7290    4.7080  -16.5320 C   0  0  0  0  0  0  0  0  0  0  0  0
   -9.8350    0.5390  -13.7070 C   0  0  0  0  0  0  0  0  0  0  0  0
   -8.7310   -0.2440  -14.3410 C   0  0  0  0  0  0  0  0  0  0  0  0
  -12.6275   -5.9464   -8.4940 H   0  0  0  0  0  0  0  0  0  0  0  0
  -13.4937   -5.6300  -10.0356 H   0  0  0  0  0  0  0  0  0  0  0  0
  -11.9902   -6.6129  -10.0356 H   0  0  0  0  0  0  0  0  0  0  0  0
  -10.6933   -4.6425   -9.3088 H   0  0  0  0  0  0  0  0  0  0  0  0
  -11.6048   -4.3280  -10.8609 H   0  0  0  0  0  0  0  0  0  0  0  0
  -13.0113   -1.7900  -10.4616 H   0  0  0  0  0  0  0  0  0  0  0  0
  -13.5399   -3.5234  -10.8200 H   0  0  0  0  0  0  0  0  0  0  0  0
  -14.5836   -2.5370   -8.2924 H   0  0  0  0  0  0  0  0  0  0  0  0
  -15.1028   -1.5340   -9.6892 H   0  0  0  0  0  0  0  0  0  0  0  0
  -15.4134   -3.3032   -9.6892 H   0  0  0  0  0  0  0  0  0  0  0  0
  -11.7989   -1.2725   -8.8655 H   0  0  0  0  0  0  0  0  0  0  0  0
  -10.9816   -2.4775   -7.7811 H   0  0  0  0  0  0  0  0  0  0  0  0
   -9.1745   -2.2483   -9.0945 H   0  0  0  0  0  0  0  0  0  0  0  0
  -10.1134   -3.1684  -10.3414 H   0  0  0  0  0  0  0  0  0  0  0  0
  -10.1610   -0.1920  -10.1800 H   0  0  0  0  0  0  0  0  0  0  0  0
  -12.0509    1.2008  -10.2466 H   0  0  0  0  0  0  0  0  0  0  0  0
  -13.0084    2.2713  -11.3255 H   0  0  0  0  0  0  0  0  0  0  0  0
  -13.3042    0.4995  -11.3255 H   0  0  0  0  0  0  0  0  0  0  0  0
  -11.8260    2.9910  -13.2190 H   0  0  0  0  0  0  0  0  0  0  0  0
   -8.9123    2.3954  -15.5997 H   0  0  0  0  0  0  0  0  0  0  0  0
  -12.2960    6.5120  -15.6450 H   0  0  0  0  0  0  0  0  0  0  0  0
  -10.9196    7.7343  -17.6599 H   0  0  0  0  0  0  0  0  0  0  0  0
   -8.9109    7.4543  -19.1487 H   0  0  0  0  0  0  0  0  0  0  0  0
   -7.9784    3.6563  -17.2596 H   0  0  0  0  0  0  0  0  0  0  0  0
   -8.1013   -0.6906  -13.5574 H   0  0  0  0  0  0  0  0  0  0  0  0
   -9.1592   -1.0414  -14.9661 H   0  0  0  0  0  0  0  0  0  0  0  0
   -8.1200    0.4238  -14.9661 H   0  0  0  0  0  0  0  0  0  0  0  0
  1  2  1  0
  2  3  1  0
  3  4  1  0
  4  5  1  0
  3  6  1  0
  6  7  1  0
  7  8  1  0
  8  9  1  0
  9 10  2  0
  9 11  1  0
 11 12  2  0
 12 13  1  0
 12 14  1  0
 14 15  1  0
 15 16  1  0
 16 17  2  0
 17 18  1  0
 18 19  2  0
 18 20  1  0
 20 21  1  0
 21 22  1  0
 22 23  2  0
 23 24  1  0
 24 25  1  0
 24 26  2  0
 26 27  1  0
 15 28  2  0
 28 29  1  0
 28 11  1  0
 27 17  1  0
 27 21  2  0
  1 30  1  0
  1 31  1  0
  1 32  1  0
  2 33  1  0
  2 34  1  0
  4 35  1  0
  4 36  1  0
  5 37  1  0
  5 38  1  0
  5 39  1  0
  6 40  1  0
  6 41  1  0
  7 42  1  0
  7 43  1  0
  8 44  1  0
 13 45  1  0
 13 46  1  0
 13 47  1  0
 14 48  1  0
 16 49  1  0
 20 50  1  0
 22 51  1  0
 23 52  1  0
 26 53  1  0
 29 54  1  0
 29 55  1  0
 29 56  1  0
M  END
>  <meeko>  (4) 
{"is_sidechain": false}

>  <vina_affinity_kcal_mol>  (4) 
-8.494

>  <pose_rank>  (4) 
4

$$$$

     RDKit          3D

 56 58  0  0  0  0  0  0  0  0999 V2000
   -8.8620   10.0520  -19.6000 C   0  0  0  0  0  0  0  0  0  0  0  0
   -9.2600    8.6910  -19.0380 C   0  0  0  0  0  0  0  0  0  0  0  0
   -9.2730    7.6190  -20.0440 N   0  0  0  0  0  0  0  0  0  0  0  0
   -9.7290    8.1090  -21.3560 C   0  0  0  0  0  0  0  0  0  0  0  0
  -10.4700    7.0990  -22.2290 C   0  0  0  0  0  0  0  0  0  0  0  0
  -10.0020    6.4140  -19.6140 C   0  0  0  0  0  0  0  0  0  0  0  0
   -9.1150    5.4700  -18.7860 C   0  0  0  0  0  0  0  0  0  0  0  0
   -9.8480    4.8880  -17.6760 N   0  0  0  0  0  0  0  0  0  0  0  0
   -9.2020    4.1350  -16.7190 C   0  0  0  0  0  0  0  0  0  0  0  0
   -8.0210    3.8140  -16.8070 O   0  0  0  0  0  0  0  0  0  0  0  0
  -10.0240    3.8050  -15.5480 C   0  0  0  0  0  0  0  0  0  0  0  0
  -11.1350    4.4920  -15.0740 C   0  0  0  0  0  0  0  0  0  0  0  0
  -11.8600    5.6910  -15.5730 C   0  0  0  0  0  0  0  0  0  0  0  0
  -11.5870    3.8340  -13.9560 N   0  0  0  0  0  0  0  0  0  0  0  0
  -10.8420    2.7110  -13.7060 C   0  0  0  0  0  0  0  0  0  0  0  0
  -11.1350    1.8260  -12.6290 C   0  0  0  0  0  0  0  0  0  0  0  0
  -12.2820    1.6460  -11.9510 C   0  0  0  0  0  0  0  0  0  0  0  0
  -13.6350    2.3040  -12.0920 C   0  0  0  0  0  0  0  0  0  0  0  0
  -13.9820    3.1590  -12.8860 O   0  0  0  0  0  0  0  0  0  0  0  0
  -14.4320    1.7260  -11.1190 N   0  0  0  0  0  0  0  0  0  0  0  0
  -13.7340    0.7770  -10.3860 C   0  0  0  0  0  0  0  0  0  0  0  0
  -14.2270    0.0130   -9.3450 C   0  0  0  0  0  0  0  0  0  0  0  0
  -13.3470   -0.8880   -8.7430 C   0  0  0  0  0  0  0  0  0  0  0  0
  -12.0240   -0.9940   -9.1960 C   0  0  0  0  0  0  0  0  0  0  0  0
  -11.2010   -1.8660   -8.6000 F   0  0  0  0  0  0  0  0  0  0  0  0
  -11.5400   -0.2150  -10.2480 C   0  0  0  0  0  0  0  0  0  0  0  0
  -12.4140    0.6780  -10.8430 C   0  0  0  0  0  0  0  0  0  0  0  0
   -9.8510    2.6650  -14.6820 C   0  0  0  0  0  0  0  0  0  0  0  0
   -8.7840    1.6320  -14.8380 C   0  0  0  0  0  0  0  0  0  0  0  0
   -8.6591   10.7459  -18.7710 H   0  0  0  0  0  0  0  0  0  0  0  0
   -7.9579    9.9437  -20.2172 H   0  0  0  0  0  0  0  0  0  0  0  0
   -9.6820   10.4479  -20.2172 H   0  0  0  0  0  0  0  0  0  0  0  0
   -8.5443    8.4181  -18.2485 H   0  0  0  0  0  0  0  0  0  0  0  0
  -10.2873    8.7877  -18.6568 H   0  0  0  0  0  0  0  0  0  0  0  0
  -10.4030    8.9606  -21.1811 H   0  0  0  0  0  0  0  0  0  0  0  0
   -8.8140    8.3643  -21.9107 H   0  0  0  0  0  0  0  0  0  0  0  0
  -10.9987    6.3784  -21.5878 H   0  0  0  0  0  0  0  0  0  0  0  0
  -11.1967    7.6268  -22.8641 H   0  0  0  0  0  0  0  0  0  0  0  0
   -9.7484    6.5642  -22.8641 H   0  0  0  0  0  0  0  0  0  0  0  0
  -10.8637    6.7194  -19.0023 H   0  0  0  0  0  0  0  0  0  0  0  0
  -10.3261    5.8729  -20.5152 H   0  0  0  0  0  0  0  0  0  0  0  0
   -8.7493    4.6614  -19.4360 H   0  0  0  0  0  0  0  0  0  0  0  0
   -8.2768    6.0537  -18.3778 H   0  0  0  0  0  0  0  0  0  0  0  0
  -10.6840    5.3600  -17.3610 H   0  0  0  0  0  0  0  0  0  0  0  0
  -12.2188    6.2843  -14.7190 H   0  0  0  0  0  0  0  0  0  0  0  0
  -11.1801    6.3024  -16.1845 H   0  0  0  0  0  0  0  0  0  0  0  0
  -12.7173    5.3730  -16.1845 H   0  0  0  0  0  0  0  0  0  0  0  0
  -12.3890    4.1340  -13.4110 H   0  0  0  0  0  0  0  0  0  0  0  0
  -10.2958    1.1942  -12.3026 H   0  0  0  0  0  0  0  0  0  0  0  0
  -15.4000    1.9810  -10.9870 H   0  0  0  0  0  0  0  0  0  0  0  0
  -15.2687    0.1108   -9.0053 H   0  0  0  0  0  0  0  0  0  0  0  0
  -13.6927   -1.5175   -7.9098 H   0  0  0  0  0  0  0  0  0  0  0  0
  -10.4994   -0.3076  -10.5925 H   0  0  0  0  0  0  0  0  0  0  0  0
   -8.4442    1.3030  -13.8449 H   0  0  0  0  0  0  0  0  0  0  0  0
   -9.1856    0.7708  -15.3920 H   0  0  0  0  0  0  0  0  0  0  0  0
   -7.9362    2.0613  -15.3920 H   0  0  0  0  0  0  0  0  0  0  0  0
  1  2  1  0
  2  3  1  0
  3  4  1  0
  4  5  1  0
  3  6  1  0
  6  7  1  0
  7  8  1  0
  8  9  1  0
  9 10  2  0
  9 11  1  0
 11 12  2  0
 12 13  1  0
 12 14  1  0
 14 15  1  0
 15 16  1  0
 16 17  2  0
 17 18  1  0
 18 19  2  0
 18 20  1  0
 20 21  1  0
 21 22  1  0
 22 23  2  0
 23 24  1  0
 24 25  1  0
 24 26  2  0
 26 27  1  0
 15 28  2  0
 28 29  1  0
 28 11  1  0
 27 17  1  0
 27 21  2  0
  1 30  1  0
  1 31  1  0
  1 32  1  0
  2 33  1  0
  2 34  1  0
  4 35  1  0
  4 36  1  0
  5 37  1  0
  5 38  1  0
  5 39  1  0
  6 40  1  0
  6 41  1  0
  7 42  1  0
  7 43  1  0
  8 44  1  0
 13 45  1  0
 13 46  1  0
 13 47  1  0
 14 48  1  0
 16 49  1  0
 20 50  1  0
 22 51  1  0
 23 52  1  0
 26 53  1  0
 29 54  1  0
 29 55  1  0
 29 56  1  0
M  END
>  <meeko>  (5) 
{"is_sidechain": false}

>  <vina_affinity_kcal_mol>  (5) 
-8.38

>  <pose_rank>  (5) 
5

$$$$

     RDKit          3D

 56 58  0  0  0  0  0  0  0  0999 V2000
  -10.0800    7.7130  -19.9270 C   0  0  0  0  0  0  0  0  0  0  0  0
   -8.9920    6.6650  -19.7200 C   0  0  0  0  0  0  0  0  0  0  0  0
   -9.2700    5.7400  -18.6110 N   0  0  0  0  0  0  0  0  0  0  0  0
  -10.5740    6.0160  -17.9840 C   0  0  0  0  0  0  0  0  0  0  0  0
  -10.7330    5.5600  -16.5360 C   0  0  0  0  0  0  0  0  0  0  0  0
   -8.1820    5.6590  -17.6230 C   0  0  0  0  0  0  0  0  0  0  0  0
   -7.3610    4.3680  -17.7750 C   0  0  0  0  0  0  0  0  0  0  0  0
   -7.9540    3.2700  -17.0310 N   0  0  0  0  0  0  0  0  0  0  0  0
   -7.2760    2.6750  -15.9880 C   0  0  0  0  0  0  0  0  0  0  0  0
   -6.1130    2.9440  -15.7080 O   0  0  0  0  0  0  0  0  0  0  0  0
   -8.0830    1.7400  -15.1940 C   0  0  0  0  0  0  0  0  0  0  0  0
   -8.1590    0.3600  -15.3330 C   0  0  0  0  0  0  0  0  0  0  0  0
   -7.4680   -0.5960  -16.2390 C   0  0  0  0  0  0  0  0  0  0  0  0
   -9.0370   -0.1070  -14.3850 N   0  0  0  0  0  0  0  0  0  0  0  0
   -9.5040    0.9120  -13.5960 C   0  0  0  0  0  0  0  0  0  0  0  0
  -10.3930    0.6850  -12.5060 C   0  0  0  0  0  0  0  0  0  0  0  0
  -11.6430    1.1370  -12.3060 C   0  0  0  0  0  0  0  0  0  0  0  0
  -12.5260    2.0250  -13.1520 C   0  0  0  0  0  0  0  0  0  0  0  0
  -12.2820    2.5250  -14.2340 O   0  0  0  0  0  0  0  0  0  0  0  0
  -13.7060    2.1610  -12.4400 N   0  0  0  0  0  0  0  0  0  0  0  0
  -13.6650    1.4550  -11.2460 C   0  0  0  0  0  0  0  0  0  0  0  0
  -14.6700    1.3730  -10.3010 C   0  0  0  0  0  0  0  0  0  0  0  0
  -14.4170    0.6030   -9.1660 C   0  0  0  0  0  0  0  0  0  0  0  0
  -13.1850   -0.0510   -9.0150 C   0  0  0  0  0  0  0  0  0  0  0  0
  -12.9690   -0.7830   -7.9150 F   0  0  0  0  0  0  0  0  0  0  0  0
  -12.1780    0.0420   -9.9770 C   0  0  0  0  0  0  0  0  0  0  0  0
  -12.4320    0.8060  -11.1030 C   0  0  0  0  0  0  0  0  0  0  0  0
   -8.9300    2.0840  -14.0780 C   0  0  0  0  0  0  0  0  0  0  0  0
   -9.1290    3.4690  -13.5550 C   0  0  0  0  0  0  0  0  0  0  0  0
  -10.4430    8.0627  -18.9493 H   0  0  0  0  0  0  0  0  0  0  0  0
   -9.6679    8.5630  -20.4905 H   0  0  0  0  0  0  0  0  0  0  0  0
  -10.9140    7.2693  -20.4905 H   0  0  0  0  0  0  0  0  0  0  0  0
   -8.8930    6.0788  -20.6455 H   0  0  0  0  0  0  0  0  0  0  0  0
   -8.0677    7.2048  -19.4663 H   0  0  0  0  0  0  0  0  0  0  0  0
  -10.7378    7.1033  -18.0138 H   0  0  0  0  0  0  0  0  0  0  0  0
  -11.3079    5.4328  -18.5596 H   0  0  0  0  0  0  0  0  0  0  0  0
  -10.4473    6.3794  -15.8601 H   0  0  0  0  0  0  0  0  0  0  0  0
  -11.7812    5.2817  -16.3522 H   0  0  0  0  0  0  0  0  0  0  0  0
  -10.0851    4.6903  -16.3522 H   0  0  0  0  0  0  0  0  0  0  0  0
   -7.5142    6.5226  -17.7585 H   0  0  0  0  0  0  0  0  0  0  0  0
   -8.6333    5.6586  -16.6198 H   0  0  0  0  0  0  0  0  0  0  0  0
   -7.3167    4.0957  -18.8398 H   0  0  0  0  0  0  0  0  0  0  0  0
   -6.3525    4.5510  -17.3757 H   0  0  0  0  0  0  0  0  0  0  0  0
   -8.9610    3.2280  -16.9700 H   0  0  0  0  0  0  0  0  0  0  0  0
   -6.9276   -1.3437  -15.6399 H   0  0  0  0  0  0  0  0  0  0  0  0
   -8.2106   -1.1018  -16.8736 H   0  0  0  0  0  0  0  0  0  0  0  0
   -6.7548   -0.0495  -16.8736 H   0  0  0  0  0  0  0  0  0  0  0  0
   -9.2780   -1.0880  -14.2750 H   0  0  0  0  0  0  0  0  0  0  0  0
   -9.9961    0.0421  -11.7066 H   0  0  0  0  0  0  0  0  0  0  0  0
  -14.4840    2.7080  -12.7770 H   0  0  0  0  0  0  0  0  0  0  0  0
  -15.6294    1.8933  -10.4382 H   0  0  0  0  0  0  0  0  0  0  0  0
  -15.1867    0.5081   -8.3859 H   0  0  0  0  0  0  0  0  0  0  0  0
  -11.2156   -0.4741   -9.8449 H   0  0  0  0  0  0  0  0  0  0  0  0
   -9.1262    3.4495  -12.4552 H   0  0  0  0  0  0  0  0  0  0  0  0
   -8.3147    4.1164  -13.9123 H   0  0  0  0  0  0  0  0  0  0  0  0
  -10.0927    3.8609  -13.9123 H   0  0  0  0  0  0  0  0  0  0  0  0
  1  2  1  0
  2  3  1  0
  3  4  1  0
  4  5  1  0
  3  6  1  0
  6  7  1  0
  7  8  1  0
  8  9  1  0
  9 10  2  0
  9 11  1  0
 11 12  2  0
 12 13  1  0
 12 14  1  0
 14 15  1  0
 15 16  1  0
 16 17  2  0
 17 18  1  0
 18 19  2  0
 18 20  1  0
 20 21  1  0
 21 22  1  0
 22 23  2  0
 23 24  1  0
 24 25  1  0
 24 26  2  0
 26 27  1  0
 15 28  2  0
 28 29  1  0
 28 11  1  0
 27 17  1  0
 27 21  2  0
  1 30  1  0
  1 31  1  0
  1 32  1  0
  2 33  1  0
  2 34  1  0
  4 35  1  0
  4 36  1  0
  5 37  1  0
  5 38  1  0
  5 39  1  0
  6 40  1  0
  6 41  1  0
  7 42  1  0
  7 43  1  0
  8 44  1  0
 13 45  1  0
 13 46  1  0
 13 47  1  0
 14 48  1  0
 16 49  1  0
 20 50  1  0
 22 51  1  0
 23 52  1  0
 26 53  1  0
 29 54  1  0
 29 55  1  0
 29 56  1  0
M  END
>  <meeko>  (6) 
{"is_sidechain": false}

>  <vina_affinity_kcal_mol>  (6) 
-8.27

>  <pose_rank>  (6) 
6

$$$$

     RDKit          3D

 56 58  0  0  0  0  0  0  0  0999 V2000
  -13.3290   -4.4080   -9.9240 C   0  0  0  0  0  0  0  0  0  0  0  0
  -13.6570   -4.6800   -8.4600 C   0  0  0  0  0  0  0  0  0  0  0  0
  -14.1610   -3.5010   -7.7410 N   0  0  0  0  0  0  0  0  0  0  0  0
  -13.7070   -3.4800   -6.3400 C   0  0  0  0  0  0  0  0  0  0  0  0
  -13.3010   -2.1170   -5.7860 C   0  0  0  0  0  0  0  0  0  0  0  0
  -15.6180   -3.3150   -7.8580 C   0  0  0  0  0  0  0  0  0  0  0  0
  -15.9810   -1.8990   -8.3340 C   0  0  0  0  0  0  0  0  0  0  0  0
  -14.9540   -1.3490   -9.2000 N   0  0  0  0  0  0  0  0  0  0  0  0
  -14.3400   -0.1520   -8.8970 C   0  0  0  0  0  0  0  0  0  0  0  0
  -14.6980    0.5660   -7.9690 O   0  0  0  0  0  0  0  0  0  0  0  0
  -13.1760    0.1630   -9.7350 C   0  0  0  0  0  0  0  0  0  0  0  0
  -11.9000   -0.3820   -9.6500 C   0  0  0  0  0  0  0  0  0  0  0  0
  -11.3160   -1.4320   -8.7730 C   0  0  0  0  0  0  0  0  0  0  0  0
  -11.1300    0.2050  -10.6230 N   0  0  0  0  0  0  0  0  0  0  0  0
  -11.8660    1.0810  -11.3780 C   0  0  0  0  0  0  0  0  0  0  0  0
  -11.3110    1.7860  -12.4850 C   0  0  0  0  0  0  0  0  0  0  0  0
  -10.5660    1.3330  -13.5080 C   0  0  0  0  0  0  0  0  0  0  0  0
  -10.0670   -0.0550  -13.8370 C   0  0  0  0  0  0  0  0  0  0  0  0
  -10.2530   -1.0910  -13.2250 O   0  0  0  0  0  0  0  0  0  0  0  0
   -9.3400    0.0800  -15.0070 N   0  0  0  0  0  0  0  0  0  0  0  0
   -9.3310    1.3940  -15.4530 C   0  0  0  0  0  0  0  0  0  0  0  0
   -8.7040    1.8760  -16.5860 C   0  0  0  0  0  0  0  0  0  0  0  0
   -8.8230    3.2410  -16.8490 C   0  0  0  0  0  0  0  0  0  0  0  0
   -9.5540    4.0670  -15.9820 C   0  0  0  0  0  0  0  0  0  0  0  0
   -9.6510    5.3740  -16.2580 F   0  0  0  0  0  0  0  0  0  0  0  0
  -10.1810    3.5660  -14.8400 C   0  0  0  0  0  0  0  0  0  0  0  0
  -10.0620    2.2120  -14.5820 C   0  0  0  0  0  0  0  0  0  0  0  0
  -13.1520    1.0820  -10.8450 C   0  0  0  0  0  0  0  0  0  0  0  0
  -14.3240    1.8780  -11.3170 C   0  0  0  0  0  0  0  0  0  0  0  0
  -12.4836   -3.7070   -9.9862 H   0  0  0  0  0  0  0  0  0  0  0  0
  -13.0601   -5.3518  -10.4210 H   0  0  0  0  0  0  0  0  0  0  0  0
  -14.2067   -3.9691  -10.4210 H   0  0  0  0  0  0  0  0  0  0  0  0
  -14.4232   -5.4680   -8.4159 H   0  0  0  0  0  0  0  0  0  0  0  0
  -12.7192   -4.9804   -7.9697 H   0  0  0  0  0  0  0  0  0  0  0  0
  -14.5261   -3.8662   -5.7155 H   0  0  0  0  0  0  0  0  0  0  0  0
  -12.7936   -4.0925   -6.3162 H   0  0  0  0  0  0  0  0  0  0  0  0
  -13.3109   -2.1503   -4.6865 H   0  0  0  0  0  0  0  0  0  0  0  0
  -12.2890   -1.8656   -6.1361 H   0  0  0  0  0  0  0  0  0  0  0  0
  -14.0105   -1.3528   -6.1361 H   0  0  0  0  0  0  0  0  0  0  0  0
  -16.0124   -4.0446   -8.5806 H   0  0  0  0  0  0  0  0  0  0  0  0
  -16.0606   -3.4627   -6.8619 H   0  0  0  0  0  0  0  0  0  0  0  0
  -16.9307   -1.9405   -8.8875 H   0  0  0  0  0  0  0  0  0  0  0  0
  -16.0708   -1.2503   -7.4502 H   0  0  0  0  0  0  0  0  0  0  0  0
  -14.3970   -1.9940   -9.7440 H   0  0  0  0  0  0  0  0  0  0  0  0
  -11.4692   -1.1565   -7.7192 H   0  0  0  0  0  0  0  0  0  0  0  0
  -11.8084   -2.3946   -8.9757 H   0  0  0  0  0  0  0  0  0  0  0  0
  -10.2385   -1.5214   -8.9757 H   0  0  0  0  0  0  0  0  0  0  0  0
  -10.1490   -0.0120  -10.7730 H   0  0  0  0  0  0  0  0  0  0  0  0
  -11.5247    2.8648  -12.5055 H   0  0  0  0  0  0  0  0  0  0  0  0
   -8.8900   -0.7020  -15.4600 H   0  0  0  0  0  0  0  0  0  0  0  0
   -8.1349    1.2114  -17.2527 H   0  0  0  0  0  0  0  0  0  0  0  0
   -8.3418    3.6713  -17.7397 H   0  0  0  0  0  0  0  0  0  0  0  0
  -10.7503    4.2252  -14.1681 H   0  0  0  0  0  0  0  0  0  0  0  0
  -14.8829    2.2576  -10.4490 H   0  0  0  0  0  0  0  0  0  0  0  0
  -13.9716    2.7243  -11.9249 H   0  0  0  0  0  0  0  0  0  0  0  0
  -14.9808    1.2384  -11.9249 H   0  0  0  0  0  0  0  0  0  0  0  0
  1  2  1  0
  2  3  1  0
  3  4  1  0
  4  5  1  0
  3  6  1  0
  6  7  1  0
  7  8  1  0
  8  9  1  0
  9 10  2  0
  9 11  1  0
 11 12  2  0
 12 13  1  0
 12 14  1  0
 14 15  1  0
 15 16  1  0
 16 17  2  0
 17 18  1  0
 18 19  2  0
 18 20  1  0
 20 21  1  0
 21 22  1  0
 22 23  2  0
 23 24  1  0
 24 25  1  0
 24 26  2  0
 26 27  1  0
 15 28  2  0
 28 29  1  0
 28 11  1  0
 27 17  1  0
 27 21  2  0
  1 30  1  0
  1 31  1  0
  1 32  1  0
  2 33  1  0
  2 34  1  0
  4 35  1  0
  4 36  1  0
  5 37  1  0
  5 38  1  0
  5 39  1  0
  6 40  1  0
  6 41  1  0
  7 42  1  0
  7 43  1  0
  8 44  1  0
 13 45  1  0
 13 46  1  0
 13 47  1  0
 14 48  1  0
 16 49  1  0
 20 50  1  0
 22 51  1  0
 23 52  1  0
 26 53  1  0
 29 54  1  0
 29 55  1  0
 29 56  1  0
M  END
>  <meeko>  (7) 
{"is_sidechain": false}

>  <vina_affinity_kcal_mol>  (7) 
-8.223

>  <pose_rank>  (7) 
7

$$$$

     RDKit          3D

 56 58  0  0  0  0  0  0  0  0999 V2000
  -14.8720   -2.1470   -7.8860 C   0  0  0  0  0  0  0  0  0  0  0  0
  -14.7170   -1.9660   -9.3930 C   0  0  0  0  0  0  0  0  0  0  0  0
  -13.3190   -1.8460   -9.8310 N   0  0  0  0  0  0  0  0  0  0  0  0
  -12.8110   -3.1120  -10.3890 C   0  0  0  0  0  0  0  0  0  0  0  0
  -11.3300   -3.4020  -10.1580 C   0  0  0  0  0  0  0  0  0  0  0  0
  -12.4230   -1.2920   -8.8020 C   0  0  0  0  0  0  0  0  0  0  0  0
  -12.1400    0.2020   -9.0300 C   0  0  0  0  0  0  0  0  0  0  0  0
  -11.5890    0.4440  -10.3510 N   0  0  0  0  0  0  0  0  0  0  0  0
  -12.3250    1.0970  -11.3160 C   0  0  0  0  0  0  0  0  0  0  0  0
  -13.5050    1.3970  -11.1660 O   0  0  0  0  0  0  0  0  0  0  0  0
  -11.5640    1.4660  -12.5160 C   0  0  0  0  0  0  0  0  0  0  0  0
  -10.5260    0.7580  -13.1100 C   0  0  0  0  0  0  0  0  0  0  0  0
   -9.8930   -0.5500  -12.7900 C   0  0  0  0  0  0  0  0  0  0  0  0
  -10.1050    1.4730  -14.2040 N   0  0  0  0  0  0  0  0  0  0  0  0
  -10.8630    2.6020  -14.3800 C   0  0  0  0  0  0  0  0  0  0  0  0
  -10.6600    3.4930  -15.4740 C   0  0  0  0  0  0  0  0  0  0  0  0
   -9.5500    3.7350  -16.1920 C   0  0  0  0  0  0  0  0  0  0  0  0
   -8.1560    3.1590  -16.0950 C   0  0  0  0  0  0  0  0  0  0  0  0
   -7.7380    2.3170  -15.3220 O   0  0  0  0  0  0  0  0  0  0  0  0
   -7.4250    3.7880  -17.0870 N   0  0  0  0  0  0  0  0  0  0  0  0
   -8.2020    4.6910  -17.7990 C   0  0  0  0  0  0  0  0  0  0  0  0
   -7.7890    5.4820  -18.8540 C   0  0  0  0  0  0  0  0  0  0  0  0
   -8.7410    6.3240  -19.4300 C   0  0  0  0  0  0  0  0  0  0  0  0
  -10.0550    6.3460  -18.9400 C   0  0  0  0  0  0  0  0  0  0  0  0
  -10.9480    7.1640  -19.5120 F   0  0  0  0  0  0  0  0  0  0  0  0
  -10.4580    5.5410  -17.8730 C   0  0  0  0  0  0  0  0  0  0  0  0
   -9.5120    4.7070  -17.3040 C   0  0  0  0  0  0  0  0  0  0  0  0
  -11.7830    2.6310  -13.3370 C   0  0  0  0  0  0  0  0  0  0  0  0
  -12.8300    3.6660  -13.0840 C   0  0  0  0  0  0  0  0  0  0  0  0
  -14.2430   -1.4124   -7.3619 H   0  0  0  0  0  0  0  0  0  0  0  0
  -15.9246   -1.9953   -7.6048 H   0  0  0  0  0  0  0  0  0  0  0  0
  -14.5602   -3.1637   -7.6048 H   0  0  0  0  0  0  0  0  0  0  0  0
  -15.1654   -2.8357   -9.8956 H   0  0  0  0  0  0  0  0  0  0  0  0
  -15.2198   -1.0242   -9.6580 H   0  0  0  0  0  0  0  0  0  0  0  0
  -13.3883   -3.9331   -9.9390 H   0  0  0  0  0  0  0  0  0  0  0  0
  -12.9277   -3.0221  -11.4791 H   0  0  0  0  0  0  0  0  0  0  0  0
  -11.1283   -3.4415   -9.0774 H   0  0  0  0  0  0  0  0  0  0  0  0
  -11.0699   -4.3681  -10.6151 H   0  0  0  0  0  0  0  0  0  0  0  0
  -10.7247   -2.6053  -10.6151 H   0  0  0  0  0  0  0  0  0  0  0  0
  -12.8937   -1.4180   -7.8158 H   0  0  0  0  0  0  0  0  0  0  0  0
  -11.4662   -1.8319   -8.8576 H   0  0  0  0  0  0  0  0  0  0  0  0
  -13.0801    0.7636   -8.9266 H   0  0  0  0  0  0  0  0  0  0  0  0
  -11.4026    0.5313   -8.2831 H   0  0  0  0  0  0  0  0  0  0  0  0
  -10.5860    0.5390  -10.4360 H   0  0  0  0  0  0  0  0  0  0  0  0
   -9.8342   -0.6716  -11.6983 H   0  0  0  0  0  0  0  0  0  0  0  0
  -10.4969   -1.3640  -13.2176 H   0  0  0  0  0  0  0  0  0  0  0  0
   -8.8800   -0.5815  -13.2176 H   0  0  0  0  0  0  0  0  0  0  0  0
   -9.3490    1.1780  -14.8140 H   0  0  0  0  0  0  0  0  0  0  0  0
  -11.5463    4.0700  -15.7764 H   0  0  0  0  0  0  0  0  0  0  0  0
   -6.4490    3.5890  -17.2510 H   0  0  0  0  0  0  0  0  0  0  0  0
   -6.7536    5.4493  -19.2241 H   0  0  0  0  0  0  0  0  0  0  0  0
   -8.4597    6.9734  -20.2721 H   0  0  0  0  0  0  0  0  0  0  0  0
  -11.4916    5.5688  -17.4977 H   0  0  0  0  0  0  0  0  0  0  0  0
  -12.9621    3.7966  -11.9998 H   0  0  0  0  0  0  0  0  0  0  0  0
  -12.5180    4.6205  -13.5330 H   0  0  0  0  0  0  0  0  0  0  0  0
  -13.7809    3.3431  -13.5330 H   0  0  0  0  0  0  0  0  0  0  0  0
  1  2  1  0
  2  3  1  0
  3  4  1  0
  4  5  1  0
  3  6  1  0
  6  7  1  0
  7  8  1  0
  8  9  1  0
  9 10  2  0
  9 11  1  0
 11 12  2  0
 12 13  1  0
 12 14  1  0
 14 15  1  0
 15 16  1  0
 16 17  2  0
 17 18  1  0
 18 19  2  0
 18 20  1  0
 20 21  1  0
 21 22  1  0
 22 23  2  0
 23 24  1  0
 24 25  1  0
 24 26  2  0
 26 27  1  0
 15 28  2  0
 28 29  1  0
 28 11  1  0
 27 17  1  0
 27 21  2  0
  1 30  1  0
  1 31  1  0
  1 32  1  0
  2 33  1  0
  2 34  1  0
  4 35  1  0
  4 36  1  0
  5 37  1  0
  5 38  1  0
  5 39  1  0
  6 40  1  0
  6 41  1  0
  7 42  1  0
  7 43  1  0
  8 44  1  0
 13 45  1  0
 13 46  1  0
 13 47  1  0
 14 48  1  0
 16 49  1  0
 20 50  1  0
 22 51  1  0
 23 52  1  0
 26 53  1  0
 29 54  1  0
 29 55  1  0
 29 56  1  0
M  END
>  <meeko>  (8) 
{"is_sidechain": false}

>  <vina_affinity_kcal_mol>  (8) 
-8.164

>  <pose_rank>  (8) 
8

$$$$

     RDKit          3D

 56 58  0  0  0  0  0  0  0  0999 V2000
  -19.2780   -1.6000   -7.2880 C   0  0  0  0  0  0  0  0  0  0  0  0
  -18.0460   -1.9970   -6.4820 C   0  0  0  0  0  0  0  0  0  0  0  0
  -17.1440   -2.9120   -7.1990 N   0  0  0  0  0  0  0  0  0  0  0  0
  -16.2400   -3.6200   -6.2770 C   0  0  0  0  0  0  0  0  0  0  0  0
  -16.6250   -5.0550   -5.9270 C   0  0  0  0  0  0  0  0  0  0  0  0
  -16.4200   -2.2760   -8.3120 C   0  0  0  0  0  0  0  0  0  0  0  0
  -15.0000   -2.8430   -8.4730 C   0  0  0  0  0  0  0  0  0  0  0  0
  -14.2040   -2.0350   -9.3790 N   0  0  0  0  0  0  0  0  0  0  0  0
  -13.4790   -0.9580   -8.9140 C   0  0  0  0  0  0  0  0  0  0  0  0
  -13.5560   -0.5490   -7.7600 O   0  0  0  0  0  0  0  0  0  0  0  0
  -12.5530   -0.3790   -9.8960 C   0  0  0  0  0  0  0  0  0  0  0  0
  -11.2590   -0.7930  -10.1850 C   0  0  0  0  0  0  0  0  0  0  0  0
  -10.4280   -1.9160   -9.6720 C   0  0  0  0  0  0  0  0  0  0  0  0
  -10.7640    0.0350  -11.1620 N   0  0  0  0  0  0  0  0  0  0  0  0
  -11.7040    0.9490  -11.5610 C   0  0  0  0  0  0  0  0  0  0  0  0
  -11.4560    1.8940  -12.5980 C   0  0  0  0  0  0  0  0  0  0  0  0
  -10.6700    1.7940  -13.6840 C   0  0  0  0  0  0  0  0  0  0  0  0
   -9.7940    0.6650  -14.1770 C   0  0  0  0  0  0  0  0  0  0  0  0
   -9.6200   -0.4310  -13.6790 O   0  0  0  0  0  0  0  0  0  0  0  0
   -9.2130    1.1300  -15.3450 N   0  0  0  0  0  0  0  0  0  0  0  0
   -9.6290    2.4200  -15.6430 C   0  0  0  0  0  0  0  0  0  0  0  0
   -9.2460    3.1790  -16.7330 C   0  0  0  0  0  0  0  0  0  0  0  0
   -9.7890    4.4590  -16.8400 C   0  0  0  0  0  0  0  0  0  0  0  0
  -10.6840    4.9320  -15.8690 C   0  0  0  0  0  0  0  0  0  0  0  0
  -11.1890    6.1660  -15.9970 F   0  0  0  0  0  0  0  0  0  0  0  0
  -11.0600    4.1550  -14.7730 C   0  0  0  0  0  0  0  0  0  0  0  0
  -10.5210    2.8850  -14.6690 C   0  0  0  0  0  0  0  0  0  0  0  0
  -12.8360    0.7210  -10.7850 C   0  0  0  0  0  0  0  0  0  0  0  0
  -14.1320    1.4610  -10.8380 C   0  0  0  0  0  0  0  0  0  0  0  0
  -20.0960   -1.3364   -6.6014 H   0  0  0  0  0  0  0  0  0  0  0  0
  -19.0379   -0.7337   -7.9220 H   0  0  0  0  0  0  0  0  0  0  0  0
  -19.5888   -2.4435   -7.9220 H   0  0  0  0  0  0  0  0  0  0  0  0
  -17.4866   -1.0842   -6.2291 H   0  0  0  0  0  0  0  0  0  0  0  0
  -18.4026   -2.5296   -5.5881 H   0  0  0  0  0  0  0  0  0  0  0  0
  -15.2413   -3.6430   -6.7375 H   0  0  0  0  0  0  0  0  0  0  0  0
  -16.2886   -3.0623   -5.3301 H   0  0  0  0  0  0  0  0  0  0  0  0
  -16.6559   -5.1700   -4.8335 H   0  0  0  0  0  0  0  0  0  0  0  0
  -17.6158   -5.2818   -6.3477 H   0  0  0  0  0  0  0  0  0  0  0  0
  -15.8808   -5.7473   -6.3477 H   0  0  0  0  0  0  0  0  0  0  0  0
  -16.9789   -2.4478   -9.2437 H   0  0  0  0  0  0  0  0  0  0  0  0
  -16.3343   -1.2016   -8.0922 H   0  0  0  0  0  0  0  0  0  0  0  0
  -14.5098   -2.8641   -7.4885 H   0  0  0  0  0  0  0  0  0  0  0  0
  -15.0787   -3.8566   -8.8931 H   0  0  0  0  0  0  0  0  0  0  0  0
  -13.8330   -2.4780  -10.2080 H   0  0  0  0  0  0  0  0  0  0  0  0
  -10.4359   -1.9053   -8.5721 H   0  0  0  0  0  0  0  0  0  0  0  0
  -10.8389   -2.8706  -10.0324 H   0  0  0  0  0  0  0  0  0  0  0  0
   -9.3950   -1.8021  -10.0324 H   0  0  0  0  0  0  0  0  0  0  0  0
   -9.8290   -0.0480  -11.5520 H   0  0  0  0  0  0  0  0  0  0  0  0
  -11.9886    2.8508  -12.4942 H   0  0  0  0  0  0  0  0  0  0  0  0
   -8.5740    0.5730  -15.8930 H   0  0  0  0  0  0  0  0  0  0  0  0
   -8.5428    2.7899  -17.4840 H   0  0  0  0  0  0  0  0  0  0  0  0
   -9.5141    5.1009  -17.6900 H   0  0  0  0  0  0  0  0  0  0  0  0
  -11.7611    4.5390  -14.0173 H   0  0  0  0  0  0  0  0  0  0  0  0
  -14.4822    1.6609   -9.8146 H   0  0  0  0  0  0  0  0  0  0  0  0
  -13.9889    2.4135  -11.3692 H   0  0  0  0  0  0  0  0  0  0  0  0
  -14.8796    0.8536  -11.3692 H   0  0  0  0  0  0  0  0  0  0  0  0
  1  2  1  0
  2  3  1  0
  3  4  1  0
  4  5  1  0
  3  6  1  0
  6  7  1  0
  7  8  1  0
  8  9  1  0
  9 10  2  0
  9 11  1  0
 11 12  2  0
 12 13  1  0
 12 14  1  0
 14 15  1  0
 15 16  1  0
 16 17  2  0
 17 18  1  0
 18 19  2  0
 18 20  1  0
 20 21  1  0
 21 22  1  0
 22 23  2  0
 23 24  1  0
 24 25  1  0
 24 26  2  0
 26 27  1  0
 15 28  2  0
 28 29  1  0
 28 11  1  0
 27 17  1  0
 27 21  2  0
  1 30  1  0
  1 31  1  0
  1 32  1  0
  2 33  1  0
  2 34  1  0
  4 35  1  0
  4 36  1  0
  5 37  1  0
  5 38  1  0
  5 39  1  0
  6 40  1  0
  6 41  1  0
  7 42  1  0
  7 43  1  0
  8 44  1  0
 13 45  1  0
 13 46  1  0
 13 47  1  0
 14 48  1  0
 16 49  1  0
 20 50  1  0
 22 51  1  0
 23 52  1  0
 26 53  1  0
 29 54  1  0
 29 55  1  0
 29 56  1  0
M  END
>  <meeko>  (9) 
{"is_sidechain": false}

>  <vina_affinity_kcal_mol>  (9) 
-8.145

>  <pose_rank>  (9) 
9

$$$$

     RDKit          3D

 56 58  0  0  0  0  0  0  0  0999 V2000
  -11.9580    0.5740  -10.5220 C   0  0  0  0  0  0  0  0  0  0  0  0
  -11.9650   -0.8650  -10.0170 C   0  0  0  0  0  0  0  0  0  0  0  0
  -10.8430   -1.6710  -10.5200 N   0  0  0  0  0  0  0  0  0  0  0  0
  -11.3000   -2.7350  -11.4300 C   0  0  0  0  0  0  0  0  0  0  0  0
  -12.4040   -3.6460  -10.8980 C   0  0  0  0  0  0  0  0  0  0  0  0
   -9.9620   -2.1850   -9.4580 C   0  0  0  0  0  0  0  0  0  0  0  0
   -8.5240   -2.4030   -9.9590 C   0  0  0  0  0  0  0  0  0  0  0  0
   -8.0910   -1.3190  -10.8220 N   0  0  0  0  0  0  0  0  0  0  0  0
   -7.6040   -1.5730  -12.0870 C   0  0  0  0  0  0  0  0  0  0  0  0
   -7.3960   -2.7060  -12.5070 O   0  0  0  0  0  0  0  0  0  0  0  0
   -7.4190   -0.3770  -12.9180 C   0  0  0  0  0  0  0  0  0  0  0  0
   -6.2230    0.2550  -13.2350 C   0  0  0  0  0  0  0  0  0  0  0  0
   -4.8060   -0.0570  -12.9070 C   0  0  0  0  0  0  0  0  0  0  0  0
   -6.5200    1.3350  -14.0310 N   0  0  0  0  0  0  0  0  0  0  0  0
   -7.8640    1.4070  -14.2890 C   0  0  0  0  0  0  0  0  0  0  0  0
   -8.4260    2.4100  -15.1300 C   0  0  0  0  0  0  0  0  0  0  0  0
   -7.8890    3.0500  -16.1830 C   0  0  0  0  0  0  0  0  0  0  0  0
   -6.5280    2.9320  -16.8310 C   0  0  0  0  0  0  0  0  0  0  0  0
   -5.6070    2.1970  -16.5280 O   0  0  0  0  0  0  0  0  0  0  0  0
   -6.5330    3.8440  -17.8720 N   0  0  0  0  0  0  0  0  0  0  0  0
   -7.7440    4.5180  -17.9540 C   0  0  0  0  0  0  0  0  0  0  0  0
   -8.0860    5.4900  -18.8750 C   0  0  0  0  0  0  0  0  0  0  0  0
   -9.3640    6.0400  -18.7760 C   0  0  0  0  0  0  0  0  0  0  0  0
  -10.2450    5.6070  -17.7750 C   0  0  0  0  0  0  0  0  0  0  0  0
  -11.4660    6.1520  -17.7030 F   0  0  0  0  0  0  0  0  0  0  0  0
   -9.8850    4.6250  -16.8510 C   0  0  0  0  0  0  0  0  0  0  0  0
   -8.6170    4.0800  -16.9510 C   0  0  0  0  0  0  0  0  0  0  0  0
   -8.4580    0.3520  -13.6020 C   0  0  0  0  0  0  0  0  0  0  0  0
   -9.9100    0.0030  -13.5630 C   0  0  0  0  0  0  0  0  0  0  0  0
  -11.9546    1.2634   -9.6648 H   0  0  0  0  0  0  0  0  0  0  0  0
  -11.0590    0.7439  -11.1327 H   0  0  0  0  0  0  0  0  0  0  0  0
  -12.8553    0.7526  -11.1327 H   0  0  0  0  0  0  0  0  0  0  0  0
  -11.9159   -0.8481   -8.9182 H   0  0  0  0  0  0  0  0  0  0  0  0
  -12.8893   -1.3323  -10.3875 H   0  0  0  0  0  0  0  0  0  0  0  0
  -11.6728   -2.2556  -12.3472 H   0  0  0  0  0  0  0  0  0  0  0  0
  -10.4275   -3.3870  -11.5838 H   0  0  0  0  0  0  0  0  0  0  0  0
  -12.3904   -3.6348   -9.7981 H   0  0  0  0  0  0  0  0  0  0  0  0
  -13.3801   -3.2870  -11.2563 H   0  0  0  0  0  0  0  0  0  0  0  0
  -12.2368   -4.6725  -11.2563 H   0  0  0  0  0  0  0  0  0  0  0  0
   -9.9439   -1.4611   -8.6300 H   0  0  0  0  0  0  0  0  0  0  0  0
  -10.3582   -3.1566   -9.1278 H   0  0  0  0  0  0  0  0  0  0  0  0
   -7.8487   -2.4616   -9.0926 H   0  0  0  0  0  0  0  0  0  0  0  0
   -8.4987   -3.3371  -10.5393 H   0  0  0  0  0  0  0  0  0  0  0  0
   -8.5250   -0.4140  -10.7010 H   0  0  0  0  0  0  0  0  0  0  0  0
   -4.6801   -0.0847  -11.8146 H   0  0  0  0  0  0  0  0  0  0  0  0
   -4.5382   -1.0356  -13.3319 H   0  0  0  0  0  0  0  0  0  0  0  0
   -4.1519    0.7186  -13.3319 H   0  0  0  0  0  0  0  0  0  0  0  0
   -5.8210    1.9730  -14.3990 H   0  0  0  0  0  0  0  0  0  0  0  0
   -9.4556    2.7056  -14.8798 H   0  0  0  0  0  0  0  0  0  0  0  0
   -5.7410    3.9760  -18.4830 H   0  0  0  0  0  0  0  0  0  0  0  0
   -7.3802    5.8161  -19.6532 H   0  0  0  0  0  0  0  0  0  0  0  0
   -9.6821    6.8171  -19.4866 H   0  0  0  0  0  0  0  0  0  0  0  0
  -10.5856    4.2954  -16.0696 H   0  0  0  0  0  0  0  0  0  0  0  0
  -10.2401   -0.0763  -12.5167 H   0  0  0  0  0  0  0  0  0  0  0  0
  -10.4895    0.7874  -14.0718 H   0  0  0  0  0  0  0  0  0  0  0  0
  -10.0697   -0.9591  -14.0718 H   0  0  0  0  0  0  0  0  0  0  0  0
  1  2  1  0
  2  3  1  0
  3  4  1  0
  4  5  1  0
  3  6  1  0
  6  7  1  0
  7  8  1  0
  8  9  1  0
  9 10  2  0
  9 11  1  0
 11 12  2  0
 12 13  1  0
 12 14  1  0
 14 15  1  0
 15 16  1  0
 16 17  2  0
 17 18  1  0
 18 19  2  0
 18 20  1  0
 20 21  1  0
 21 22  1  0
 22 23  2  0
 23 24  1  0
 24 25  1  0
 24 26  2  0
 26 27  1  0
 15 28  2  0
 28 29  1  0
 28 11  1  0
 27 17  1  0
 27 21  2  0
  1 30  1  0
  1 31  1  0
  1 32  1  0
  2 33  1  0
  2 34  1  0
  4 35  1  0
  4 36  1  0
  5 37  1  0
  5 38  1  0
  5 39  1  0
  6 40  1  0
  6 41  1  0
  7 42  1  0
  7 43  1  0
  8 44  1  0
 13 45  1  0
 13 46  1  0
 13 47  1  0
 14 48  1  0
 16 49  1  0
 20 50  1  0
 22 51  1  0
 23 52  1  0
 26 53  1  0
 29 54  1  0
 29 55  1  0
 29 56  1  0
M  END
>  <meeko>  (10) 
{"is_sidechain": false}

>  <vina_affinity_kcal_mol>  (10) 
-8.099

>  <pose_rank>  (10) 
10

$$$$
