
     RDKit          3D

 51 54  0  0  0  0  0  0  0  0999 V2000
   -7.8484   -0.7349    2.6792 C   0  0  0  0  0  0  0  0  0  0  0  0
   -7.0668   -1.3953    1.6935 O   0  0  0  0  0  0  0  0  0  0  0  0
   -6.0256   -0.6974    1.1325 C   0  0  0  0  0  0  0  0  0  0  0  0
   -5.6940    0.6239    1.4550 C   0  0  0  0  0  0  0  0  0  0  0  0
   -4.6295    1.2823    0.8555 C   0  0  0  0  0  0  0  0  0  0  0  0
   -4.3724    2.5531    1.2138 N   0  0  0  0  0  0  0  0  0  0  0  0
   -3.3436    3.1954    0.6204 C   0  0  0  0  0  0  0  0  0  0  0  0
   -2.5301    2.6215   -0.3314 C   0  0  0  0  0  0  0  0  0  0  0  0
   -2.7864    1.2989   -0.6791 C   0  0  0  0  0  0  0  0  0  0  0  0
   -2.0303    0.6802   -1.6543 O   0  0  0  0  0  0  0  0  0  0  0  0
   -0.6717    0.5995   -1.4438 C   0  0  0  0  0  0  0  0  0  0  0  0
   -0.0994    0.3149   -0.2032 C   0  0  0  0  0  0  0  0  0  0  0  0
    1.2917    0.2181   -0.0749 C   0  0  0  0  0  0  0  0  0  0  0  0
    2.1234    0.3930   -1.1844 C   0  0  0  0  0  0  0  0  0  0  0  0
    3.5353    0.3009   -1.1210 N   0  0  0  0  0  0  0  0  0  0  0  0
    4.3347    0.2238    0.0120 C   0  0  0  0  0  0  0  0  0  0  0  0
    3.9158    0.3023    1.1582 O   0  0  0  0  0  0  0  0  0  0  0  0
    5.6582    0.0436   -0.3497 N   0  0  0  0  0  0  0  0  0  0  0  0
    6.7187    0.0018    0.5364 C   0  0  0  0  0  0  0  0  0  0  0  0
    8.0486   -0.2943    0.1446 C   0  0  0  0  0  0  0  0  0  0  0  0
    8.7788   -0.2236    1.3045 C   0  0  0  0  0  0  0  0  0  0  0  0
   10.1981   -0.4137    1.6471 C   0  0  0  0  0  0  0  0  0  0  0  0
    7.9486    0.0985    2.3290 O   0  0  0  0  0  0  0  0  0  0  0  0
    6.6631    0.2431    1.8489 N   0  0  0  0  0  0  0  0  0  0  0  0
    1.5259    0.6478   -2.4341 C   0  0  0  0  0  0  0  0  0  0  0  0
    2.4948    0.8492   -3.8571 Cl  0  0  0  0  0  0  0  0  0  0  0  0
    0.1393    0.7468   -2.5661 C   0  0  0  0  0  0  0  0  0  0  0  0
   -3.8632    0.5961   -0.1037 C   0  0  0  0  0  0  0  0  0  0  0  0
   -4.1908   -0.7375   -0.4371 C   0  0  0  0  0  0  0  0  0  0  0  0
   -5.2649   -1.3872    0.1743 C   0  0  0  0  0  0  0  0  0  0  0  0
   -5.6481   -2.6772   -0.0910 O   0  0  0  0  0  0  0  0  0  0  0  0
   -4.8868   -3.4128   -1.0380 C   0  0  0  0  0  0  0  0  0  0  0  0
   -8.6185   -1.4343    3.0188 H   0  0  0  0  0  0  0  0  0  0  0  0
   -7.2408   -0.4626    3.5485 H   0  0  0  0  0  0  0  0  0  0  0  0
   -8.3562    0.1397    2.2597 H   0  0  0  0  0  0  0  0  0  0  0  0
   -6.2629    1.1843    2.1899 H   0  0  0  0  0  0  0  0  0  0  0  0
   -3.1922    4.2218    0.9429 H   0  0  0  0  0  0  0  0  0  0  0  0
   -1.7268    3.1877   -0.7866 H   0  0  0  0  0  0  0  0  0  0  0  0
   -0.7179    0.1548    0.6771 H   0  0  0  0  0  0  0  0  0  0  0  0
    1.6919   -0.0088    0.9096 H   0  0  0  0  0  0  0  0  0  0  0  0
    4.0055    0.4620   -2.0014 H   0  0  0  0  0  0  0  0  0  0  0  0
    5.8677   -0.1903   -1.3046 H   0  0  0  0  0  0  0  0  0  0  0  0
    8.4233   -0.5277   -0.8397 H   0  0  0  0  0  0  0  0  0  0  0  0
   10.3123   -1.2219    2.3759 H   0  0  0  0  0  0  0  0  0  0  0  0
   10.7852   -0.6702    0.7599 H   0  0  0  0  0  0  0  0  0  0  0  0
   10.6150    0.5018    2.0779 H   0  0  0  0  0  0  0  0  0  0  0  0
   -0.3112    0.9417   -3.5354 H   0  0  0  0  0  0  0  0  0  0  0  0
   -3.5856   -1.2460   -1.1807 H   0  0  0  0  0  0  0  0  0  0  0  0
   -4.9383   -2.9515   -2.0297 H   0  0  0  0  0  0  0  0  0  0  0  0
   -5.3241   -4.4130   -1.1143 H   0  0  0  0  0  0  0  0  0  0  0  0
   -3.8493   -3.5283   -0.7075 H   0  0  0  0  0  0  0  0  0  0  0  0
  1  2  1  0
  2  3  1  0
  3  4  1  0
  4  5  2  0
  5  6  1  0
  6  7  2  0
  7  8  1  0
  8  9  2  0
  9 10  1  0
 10 11  1  0
 11 12  1  0
 12 13  2  0
 13 14  1  0
 14 15  1  0
 15 16  1  0
 16 17  2  0
 16 18  1  0
 18 19  1  0
 19 20  1  0
 20 21  2  0
 21 22  1  0
 21 23  1  0
 23 24  1  0
 14 25  2  0
 25 26  1  0
 25 27  1  0
  9 28  1  0
 28 29  2  0
 29 30  1  0
 30 31  1  0
 31 32  1  0
 30  3  2  0
 28  5  1  0
 27 11  2  0
 24 19  2  0
  1 33  1  0
  1 34  1  0
  1 35  1  0
  4 36  1  0
  7 37  1  0
  8 38  1  0
 12 39  1  0
 13 40  1  0
 15 41  1  0
 18 42  1  0
 20 43  1  0
 22 44  1  0
 22 45  1  0
 22 46  1  0
 27 47  1  0
 29 48  1  0
 32 49  1  0
 32 50  1  0
 32 51  1  0
M  END
$$$$
