
     RDKit          3D

 51 54  0  0  0  0  0  0  0  0999 V2000
   -7.4080    4.8030  -18.4750 C   0  0  0  0  0  0  0  0  0  0  0  0
   -7.5300    3.5200  -17.8810 O   0  0  0  0  0  0  0  0  0  0  0  0
   -8.4070    3.3820  -16.8330 C   0  0  0  0  0  0  0  0  0  0  0  0
   -9.5180    4.2060  -16.6190 C   0  0  0  0  0  0  0  0  0  0  0  0
  -10.3730    4.0220  -15.5410 C   0  0  0  0  0  0  0  0  0  0  0  0
  -11.4190    4.8560  -15.3980 N   0  0  0  0  0  0  0  0  0  0  0  0
  -12.2420    4.6820  -14.3420 C   0  0  0  0  0  0  0  0  0  0  0  0
  -12.0820    3.6900  -13.4010 C   0  0  0  0  0  0  0  0  0  0  0  0
  -11.0120    2.8150  -13.5690 C   0  0  0  0  0  0  0  0  0  0  0  0
  -10.7750    1.8240  -12.6390 O   0  0  0  0  0  0  0  0  0  0  0  0
  -11.8310    1.4360  -11.8460 C   0  0  0  0  0  0  0  0  0  0  0  0
  -13.1070    1.9940  -11.9330 C   0  0  0  0  0  0  0  0  0  0  0  0
  -14.1400    1.5230  -11.1130 C   0  0  0  0  0  0  0  0  0  0  0  0
  -13.9110    0.4860  -10.2050 C   0  0  0  0  0  0  0  0  0  0  0  0
  -14.9140   -0.0380   -9.3530 N   0  0  0  0  0  0  0  0  0  0  0  0
  -15.5380    0.5910   -8.2830 C   0  0  0  0  0  0  0  0  0  0  0  0
  -15.2420    1.7030   -7.8690 O   0  0  0  0  0  0  0  0  0  0  0  0
  -16.5340   -0.2200   -7.7690 N   0  0  0  0  0  0  0  0  0  0  0  0
  -17.2960    0.0780   -6.6540 C   0  0  0  0  0  0  0  0  0  0  0  0
  -18.6030    0.6230   -6.7260 C   0  0  0  0  0  0  0  0  0  0  0  0
  -19.0000    0.7560   -5.4190 C   0  0  0  0  0  0  0  0  0  0  0  0
  -20.2160    1.2470   -4.7530 C   0  0  0  0  0  0  0  0  0  0  0  0
  -18.0030    0.3160   -4.6090 O   0  0  0  0  0  0  0  0  0  0  0  0
  -16.9410   -0.1110   -5.3800 N   0  0  0  0  0  0  0  0  0  0  0  0
  -12.6250   -0.0860  -10.1520 C   0  0  0  0  0  0  0  0  0  0  0  0
  -12.2780   -1.3930   -9.0690 Cl  0  0  0  0  0  0  0  0  0  0  0  0
  -11.5920    0.3810  -10.9680 C   0  0  0  0  0  0  0  0  0  0  0  0
  -10.1130    2.9720  -14.6420 C   0  0  0  0  0  0  0  0  0  0  0  0
   -8.9940    2.1360  -14.8500 C   0  0  0  0  0  0  0  0  0  0  0  0
   -8.1410    2.3330  -15.9380 C   0  0  0  0  0  0  0  0  0  0  0  0
   -7.0370    1.5670  -16.2120 O   0  0  0  0  0  0  0  0  0  0  0  0
   -7.1140    0.1740  -15.9460 C   0  0  0  0  0  0  0  0  0  0  0  0
   -7.3354    5.5667  -17.6866 H   0  0  0  0  0  0  0  0  0  0  0  0
   -6.5029    4.8334  -19.0994 H   0  0  0  0  0  0  0  0  0  0  0  0
   -8.2911    5.0034  -19.0994 H   0  0  0  0  0  0  0  0  0  0  0  0
   -9.7197    5.0240  -17.3263 H   0  0  0  0  0  0  0  0  0  0  0  0
  -13.0899    5.3732  -14.2268 H   0  0  0  0  0  0  0  0  0  0  0  0
  -12.7722    3.5925  -12.5500 H   0  0  0  0  0  0  0  0  0  0  0  0
  -13.3022    2.8067  -12.6482 H   0  0  0  0  0  0  0  0  0  0  0  0
  -15.1409    1.9736  -11.1844 H   0  0  0  0  0  0  0  0  0  0  0  0
  -15.0740   -1.0300   -9.4550 H   0  0  0  0  0  0  0  0  0  0  0  0
  -16.8160   -1.0290   -8.2960 H   0  0  0  0  0  0  0  0  0  0  0  0
  -19.1732    0.8821   -7.6303 H   0  0  0  0  0  0  0  0  0  0  0  0
  -20.0837    1.1936   -3.6623 H   0  0  0  0  0  0  0  0  0  0  0  0
  -20.4006    2.2901   -5.0493 H   0  0  0  0  0  0  0  0  0  0  0  0
  -21.0731    0.6245   -5.0493 H   0  0  0  0  0  0  0  0  0  0  0  0
  -10.5953   -0.0816  -10.9177 H   0  0  0  0  0  0  0  0  0  0  0  0
   -8.7912    1.3171  -14.1442 H   0  0  0  0  0  0  0  0  0  0  0  0
   -7.1232    0.0083  -14.8586 H   0  0  0  0  0  0  0  0  0  0  0  0
   -8.0360   -0.2330  -16.3867 H   0  0  0  0  0  0  0  0  0  0  0  0
   -6.2425   -0.3322  -16.3867 H   0  0  0  0  0  0  0  0  0  0  0  0
  1  2  1  0
  2  3  1  0
  3  4  1  0
  4  5  2  0
  5  6  1  0
  6  7  2  0
  7  8  1  0
  8  9  2  0
  9 10  1  0
 10 11  1  0
 11 12  1  0
 12 13  2  0
 13 14  1  0
 14 15  1  0
 15 16  1  0
 16 17  2  0
 16 18  1  0
 18 19  1  0
 19 20  1  0
 20 21  2  0
 21 22  1  0
 21 23  1  0
 23 24  1  0
 14 25  2  0
 25 26  1  0
 25 27  1  0
  9 28  1  0
 28 29  2  0
 29 30  1  0
 30 31  1  0
 31 32  1  0
 30  3  2  0
 28  5  1  0
 27 11  2  0
 24 19  2  0
  1 33  1  0
  1 34  1  0
  1 35  1  0
  4 36  1  0
  7 37  1  0
  8 38  1  0
 12 39  1  0
 13 40  1  0
 15 41  1  0
 18 42  1  0
 20 43  1  0
 22 44  1  0
 22 45  1  0
 22 46  1  0
 27 47  1  0
 29 48  1  0
 32 49  1  0
 32 50  1  0
 32 51  1  0
M  END
>  <meeko>  (1) 
{"is_sidechain": false}

>  <vina_affinity_kcal_mol>  (1) 
-9.342

>  <pose_rank>  (1) 
1

$$$$

     RDKit          3D

 51 54  0  0  0  0  0  0  0  0999 V2000
  -12.7780    0.4490   -6.0280 C   0  0  0  0  0  0  0  0  0  0  0  0
  -13.2910   -0.3900   -7.0530 O   0  0  0  0  0  0  0  0  0  0  0  0
  -12.4810   -0.6470   -8.1320 C   0  0  0  0  0  0  0  0  0  0  0  0
  -11.1630   -1.1090   -8.0390 C   0  0  0  0  0  0  0  0  0  0  0  0
  -10.3880   -1.3520   -9.1650 C   0  0  0  0  0  0  0  0  0  0  0  0
   -9.1280   -1.7940   -8.9980 N   0  0  0  0  0  0  0  0  0  0  0  0
   -8.3730   -2.0180  -10.0940 C   0  0  0  0  0  0  0  0  0  0  0  0
   -8.8190   -1.8300  -11.3830 C   0  0  0  0  0  0  0  0  0  0  0  0
  -10.1310   -1.3990  -11.5490 C   0  0  0  0  0  0  0  0  0  0  0  0
  -10.6260   -1.1550  -12.8150 O   0  0  0  0  0  0  0  0  0  0  0  0
  -10.2040   -0.0080  -13.4480 C   0  0  0  0  0  0  0  0  0  0  0  0
   -9.0120    0.0820  -14.1680 C   0  0  0  0  0  0  0  0  0  0  0  0
   -8.6660    1.2760  -14.8120 C   0  0  0  0  0  0  0  0  0  0  0  0
   -9.5100    2.3870  -14.7530 C   0  0  0  0  0  0  0  0  0  0  0  0
   -9.2200    3.6200  -15.3870 N   0  0  0  0  0  0  0  0  0  0  0  0
   -9.3700    3.9440  -16.7300 C   0  0  0  0  0  0  0  0  0  0  0  0
   -9.7190    3.1530  -17.5950 O   0  0  0  0  0  0  0  0  0  0  0  0
   -9.0730    5.2800  -16.9340 N   0  0  0  0  0  0  0  0  0  0  0  0
   -9.0540    5.9030  -18.1680 C   0  0  0  0  0  0  0  0  0  0  0  0
   -9.9860    6.8990  -18.5530 C   0  0  0  0  0  0  0  0  0  0  0  0
   -9.6140    7.2550  -19.8250 C   0  0  0  0  0  0  0  0  0  0  0  0
  -10.1230    8.2100  -20.8220 C   0  0  0  0  0  0  0  0  0  0  0  0
   -8.5260    6.5280  -20.1850 O   0  0  0  0  0  0  0  0  0  0  0  0
   -8.1730    5.6870  -19.1490 N   0  0  0  0  0  0  0  0  0  0  0  0
  -10.7230    2.2690  -14.0480 C   0  0  0  0  0  0  0  0  0  0  0  0
  -11.8310    3.5990  -13.9550 Cl  0  0  0  0  0  0  0  0  0  0  0  0
  -11.0720    1.0800  -13.4020 C   0  0  0  0  0  0  0  0  0  0  0  0
  -10.9500   -1.1280  -10.4350 C   0  0  0  0  0  0  0  0  0  0  0  0
  -12.2790   -0.6610  -10.5380 C   0  0  0  0  0  0  0  0  0  0  0  0
  -13.0470   -0.4190   -9.3970 C   0  0  0  0  0  0  0  0  0  0  0  0
  -14.3410    0.0330   -9.4110 O   0  0  0  0  0  0  0  0  0  0  0  0
  -14.6710    1.0710  -10.3220 C   0  0  0  0  0  0  0  0  0  0  0  0
  -13.0360    0.0271   -5.0454 H   0  0  0  0  0  0  0  0  0  0  0  0
  -11.6841    0.5163   -6.1224 H   0  0  0  0  0  0  0  0  0  0  0  0
  -13.2166    1.4533   -6.1224 H   0  0  0  0  0  0  0  0  0  0  0  0
  -10.7282   -1.2848   -7.0440 H   0  0  0  0  0  0  0  0  0  0  0  0
   -7.3414   -2.3713   -9.9491 H   0  0  0  0  0  0  0  0  0  0  0  0
   -8.1637   -2.0134  -12.2473 H   0  0  0  0  0  0  0  0  0  0  0  0
   -8.3419   -0.7882  -14.2298 H   0  0  0  0  0  0  0  0  0  0  0  0
   -7.7201    1.3396  -15.3699 H   0  0  0  0  0  0  0  0  0  0  0  0
   -8.7070    4.2760  -14.8150 H   0  0  0  0  0  0  0  0  0  0  0  0
   -8.9770    5.8790  -16.1320 H   0  0  0  0  0  0  0  0  0  0  0  0
  -10.8233    7.2987  -17.9621 H   0  0  0  0  0  0  0  0  0  0  0  0
  -10.5804    9.0681  -20.3077 H   0  0  0  0  0  0  0  0  0  0  0  0
   -9.2920    8.5604  -21.4518 H   0  0  0  0  0  0  0  0  0  0  0  0
  -10.8772    7.7155  -21.4518 H   0  0  0  0  0  0  0  0  0  0  0  0
  -12.0265    1.0040  -12.8605 H   0  0  0  0  0  0  0  0  0  0  0  0
  -12.7158   -0.4852  -11.5321 H   0  0  0  0  0  0  0  0  0  0  0  0
  -14.9578    1.9731   -9.7617 H   0  0  0  0  0  0  0  0  0  0  0  0
  -13.7995    1.2941  -10.9550 H   0  0  0  0  0  0  0  0  0  0  0  0
  -15.5113    0.7499  -10.9550 H   0  0  0  0  0  0  0  0  0  0  0  0
  1  2  1  0
  2  3  1  0
  3  4  1  0
  4  5  2  0
  5  6  1  0
  6  7  2  0
  7  8  1  0
  8  9  2  0
  9 10  1  0
 10 11  1  0
 11 12  1  0
 12 13  2  0
 13 14  1  0
 14 15  1  0
 15 16  1  0
 16 17  2  0
 16 18  1  0
 18 19  1  0
 19 20  1  0
 20 21  2  0
 21 22  1  0
 21 23  1  0
 23 24  1  0
 14 25  2  0
 25 26  1  0
 25 27  1  0
  9 28  1  0
 28 29  2  0
 29 30  1  0
 30 31  1  0
 31 32  1  0
 30  3  2  0
 28  5  1  0
 27 11  2  0
 24 19  2  0
  1 33  1  0
  1 34  1  0
  1 35  1  0
  4 36  1  0
  7 37  1  0
  8 38  1  0
 12 39  1  0
 13 40  1  0
 15 41  1  0
 18 42  1  0
 20 43  1  0
 22 44  1  0
 22 45  1  0
 22 46  1  0
 27 47  1  0
 29 48  1  0
 32 49  1  0
 32 50  1  0
 32 51  1  0
M  END
>  <meeko>  (2) 
{"is_sidechain": false}

>  <vina_affinity_kcal_mol>  (2) 
-9.211

>  <pose_rank>  (2) 
2

$$$$

     RDKit          3D

 51 54  0  0  0  0  0  0  0  0999 V2000
   -7.7140    5.1950  -18.8080 C   0  0  0  0  0  0  0  0  0  0  0  0
   -7.7060    5.2070  -17.3890 O   0  0  0  0  0  0  0  0  0  0  0  0
   -7.8570    4.0070  -16.7390 C   0  0  0  0  0  0  0  0  0  0  0  0
   -6.7990    3.2370  -16.2420 C   0  0  0  0  0  0  0  0  0  0  0  0
   -7.0100    2.0300  -15.5920 C   0  0  0  0  0  0  0  0  0  0  0  0
   -5.9430    1.3430  -15.1440 N   0  0  0  0  0  0  0  0  0  0  0  0
   -6.1510    0.1620  -14.5230 C   0  0  0  0  0  0  0  0  0  0  0  0
   -7.3970   -0.3820  -14.3100 C   0  0  0  0  0  0  0  0  0  0  0  0
   -8.4970    0.3450  -14.7530 C   0  0  0  0  0  0  0  0  0  0  0  0
   -9.7710   -0.1650  -14.6030 O   0  0  0  0  0  0  0  0  0  0  0  0
  -10.4200    0.0930  -13.4170 C   0  0  0  0  0  0  0  0  0  0  0  0
  -11.1330    1.2670  -13.1670 C   0  0  0  0  0  0  0  0  0  0  0  0
  -11.7930    1.4430  -11.9450 C   0  0  0  0  0  0  0  0  0  0  0  0
  -11.7580    0.4470  -10.9660 C   0  0  0  0  0  0  0  0  0  0  0  0
  -12.4100    0.5630   -9.7140 N   0  0  0  0  0  0  0  0  0  0  0  0
  -13.7290    0.2530   -9.4080 C   0  0  0  0  0  0  0  0  0  0  0  0
  -14.5610   -0.1060  -10.2290 O   0  0  0  0  0  0  0  0  0  0  0  0
  -13.9530    0.4080   -8.0520 N   0  0  0  0  0  0  0  0  0  0  0  0
  -15.1790    0.2520   -7.4320 C   0  0  0  0  0  0  0  0  0  0  0  0
  -15.4410   -0.7530   -6.4670 C   0  0  0  0  0  0  0  0  0  0  0  0
  -16.7500   -0.5570   -6.1040 C   0  0  0  0  0  0  0  0  0  0  0  0
  -17.6740   -1.2180   -5.1680 C   0  0  0  0  0  0  0  0  0  0  0  0
  -17.2460    0.4990   -6.7980 O   0  0  0  0  0  0  0  0  0  0  0  0
  -16.2650    1.0070   -7.6240 N   0  0  0  0  0  0  0  0  0  0  0  0
  -11.0590   -0.7430  -11.2480 C   0  0  0  0  0  0  0  0  0  0  0  0
  -10.9960   -2.0310  -10.0900 Cl  0  0  0  0  0  0  0  0  0  0  0  0
  -10.3980   -0.9230  -12.4650 C   0  0  0  0  0  0  0  0  0  0  0  0
   -8.3290    1.5700  -15.4280 C   0  0  0  0  0  0  0  0  0  0  0  0
   -9.4040    2.3400  -15.9270 C   0  0  0  0  0  0  0  0  0  0  0  0
   -9.1770    3.5530  -16.5790 C   0  0  0  0  0  0  0  0  0  0  0  0
  -10.1620    4.3590  -17.0900 O   0  0  0  0  0  0  0  0  0  0  0  0
  -10.8390    5.2290  -16.1940 C   0  0  0  0  0  0  0  0  0  0  0  0
   -8.2913    4.3291  -19.1641 H   0  0  0  0  0  0  0  0  0  0  0  0
   -8.1757    6.1216  -19.1799 H   0  0  0  0  0  0  0  0  0  0  0  0
   -6.6811    5.1251  -19.1799 H   0  0  0  0  0  0  0  0  0  0  0  0
   -5.7687    3.6002  -16.3709 H   0  0  0  0  0  0  0  0  0  0  0  0
   -5.2736   -0.3976  -14.1667 H   0  0  0  0  0  0  0  0  0  0  0  0
   -7.5183   -1.3537  -13.8090 H   0  0  0  0  0  0  0  0  0  0  0  0
  -11.1763    2.0559  -13.9323 H   0  0  0  0  0  0  0  0  0  0  0  0
  -12.3448    2.3751  -11.7537 H   0  0  0  0  0  0  0  0  0  0  0  0
  -11.8860    1.0680   -9.0140 H   0  0  0  0  0  0  0  0  0  0  0  0
  -13.1610    0.5280   -7.4440 H   0  0  0  0  0  0  0  0  0  0  0  0
  -14.7480   -1.5205   -6.0919 H   0  0  0  0  0  0  0  0  0  0  0  0
  -17.3678   -0.9990   -4.1344 H   0  0  0  0  0  0  0  0  0  0  0  0
  -18.6949   -0.8440   -5.3351 H   0  0  0  0  0  0  0  0  0  0  0  0
  -17.6498   -2.3050   -5.3351 H   0  0  0  0  0  0  0  0  0  0  0  0
   -9.8631   -1.8620  -12.6704 H   0  0  0  0  0  0  0  0  0  0  0  0
  -10.4349    1.9779  -15.7996 H   0  0  0  0  0  0  0  0  0  0  0  0
  -10.6120    4.9373  -15.1579 H   0  0  0  0  0  0  0  0  0  0  0  0
  -10.5058    6.2633  -16.3651 H   0  0  0  0  0  0  0  0  0  0  0  0
  -11.9234    5.1601  -16.3651 H   0  0  0  0  0  0  0  0  0  0  0  0
  1  2  1  0
  2  3  1  0
  3  4  1  0
  4  5  2  0
  5  6  1  0
  6  7  2  0
  7  8  1  0
  8  9  2  0
  9 10  1  0
 10 11  1  0
 11 12  1  0
 12 13  2  0
 13 14  1  0
 14 15  1  0
 15 16  1  0
 16 17  2  0
 16 18  1  0
 18 19  1  0
 19 20  1  0
 20 21  2  0
 21 22  1  0
 21 23  1  0
 23 24  1  0
 14 25  2  0
 25 26  1  0
 25 27  1  0
  9 28  1  0
 28 29  2  0
 29 30  1  0
 30 31  1  0
 31 32  1  0
 30  3  2  0
 28  5  1  0
 27 11  2  0
 24 19  2  0
  1 33  1  0
  1 34  1  0
  1 35  1  0
  4 36  1  0
  7 37  1  0
  8 38  1  0
 12 39  1  0
 13 40  1  0
 15 41  1  0
 18 42  1  0
 20 43  1  0
 22 44  1  0
 22 45  1  0
 22 46  1  0
 27 47  1  0
 29 48  1  0
 32 49  1  0
 32 50  1  0
 32 51  1  0
M  END
>  <meeko>  (3) 
{"is_sidechain": false}

>  <vina_affinity_kcal_mol>  (3) 
-9.0

>  <pose_rank>  (3) 
3

$$$$

     RDKit          3D

 51 54  0  0  0  0  0  0  0  0999 V2000
   -6.6980    4.2980  -17.6000 C   0  0  0  0  0  0  0  0  0  0  0  0
   -8.0930    4.0970  -17.7680 O   0  0  0  0  0  0  0  0  0  0  0  0
   -8.7750    3.4750  -16.7510 C   0  0  0  0  0  0  0  0  0  0  0  0
   -8.6040    2.1340  -16.3880 C   0  0  0  0  0  0  0  0  0  0  0  0
   -9.3210    1.5560  -15.3500 C   0  0  0  0  0  0  0  0  0  0  0  0
   -9.1050    0.2600  -15.0600 N   0  0  0  0  0  0  0  0  0  0  0  0
   -9.8130   -0.3030  -14.0580 C   0  0  0  0  0  0  0  0  0  0  0  0
  -10.7420    0.3750  -13.3020 C   0  0  0  0  0  0  0  0  0  0  0  0
  -10.9420    1.7220  -13.5900 C   0  0  0  0  0  0  0  0  0  0  0  0
  -11.8880    2.4460  -12.8940 O   0  0  0  0  0  0  0  0  0  0  0  0
  -12.5150    1.8200  -11.8410 C   0  0  0  0  0  0  0  0  0  0  0  0
  -13.8920    1.8760  -11.6190 C   0  0  0  0  0  0  0  0  0  0  0  0
  -14.4610    1.1850  -10.5420 C   0  0  0  0  0  0  0  0  0  0  0  0
  -13.6630    0.4250   -9.6830 C   0  0  0  0  0  0  0  0  0  0  0  0
  -14.1790   -0.3010   -8.5810 N   0  0  0  0  0  0  0  0  0  0  0  0
  -14.7070   -1.5860   -8.5780 C   0  0  0  0  0  0  0  0  0  0  0  0
  -14.8730   -2.2650   -9.5810 O   0  0  0  0  0  0  0  0  0  0  0  0
  -15.0080   -1.9750   -7.2850 N   0  0  0  0  0  0  0  0  0  0  0  0
  -15.6170   -3.1680   -6.9420 C   0  0  0  0  0  0  0  0  0  0  0  0
  -14.9250   -4.4040   -6.8720 C   0  0  0  0  0  0  0  0  0  0  0  0
  -15.8760   -5.3170   -6.4950 C   0  0  0  0  0  0  0  0  0  0  0  0
  -15.8740   -6.7660   -6.2360 C   0  0  0  0  0  0  0  0  0  0  0  0
  -17.0640   -4.6790   -6.3410 O   0  0  0  0  0  0  0  0  0  0  0  0
  -16.9020   -3.3360   -6.6170 N   0  0  0  0  0  0  0  0  0  0  0  0
  -12.2800    0.3540   -9.9400 C   0  0  0  0  0  0  0  0  0  0  0  0
  -11.2360   -0.5920   -8.9310 Cl  0  0  0  0  0  0  0  0  0  0  0  0
  -11.7090    1.0430  -11.0130 C   0  0  0  0  0  0  0  0  0  0  0  0
  -10.2450    2.3460  -14.6430 C   0  0  0  0  0  0  0  0  0  0  0  0
  -10.4250    3.7010  -15.0020 C   0  0  0  0  0  0  0  0  0  0  0  0
   -9.6970    4.2690  -16.0490 C   0  0  0  0  0  0  0  0  0  0  0  0
   -9.8120    5.5730  -16.4600 O   0  0  0  0  0  0  0  0  0  0  0  0
  -11.0860    6.1920  -16.3540 C   0  0  0  0  0  0  0  0  0  0  0  0
   -6.4591    4.3324  -16.5268 H   0  0  0  0  0  0  0  0  0  0  0  0
   -6.1488    3.4697  -18.0715 H   0  0  0  0  0  0  0  0  0  0  0  0
   -6.4050    5.2476  -18.0715 H   0  0  0  0  0  0  0  0  0  0  0  0
   -7.8792    1.5197  -16.9424 H   0  0  0  0  0  0  0  0  0  0  0  0
   -9.6373   -1.3652  -13.8327 H   0  0  0  0  0  0  0  0  0  0  0  0
  -11.3044   -0.1279  -12.5015 H   0  0  0  0  0  0  0  0  0  0  0  0
  -14.5323    2.4649  -12.2923 H   0  0  0  0  0  0  0  0  0  0  0  0
  -15.5461    1.2411  -10.3707 H   0  0  0  0  0  0  0  0  0  0  0  0
  -14.3060    0.2460   -7.7410 H   0  0  0  0  0  0  0  0  0  0  0  0
  -14.6630   -1.4170   -6.5230 H   0  0  0  0  0  0  0  0  0  0  0  0
  -13.8600   -4.5894   -7.0754 H   0  0  0  0  0  0  0  0  0  0  0  0
  -15.8738   -6.9445   -5.1506 H   0  0  0  0  0  0  0  0  0  0  0  0
  -16.7715   -7.2194   -6.6819 H   0  0  0  0  0  0  0  0  0  0  0  0
  -14.9752   -7.2169   -6.6819 H   0  0  0  0  0  0  0  0  0  0  0  0
  -10.6278    0.9720  -11.2028 H   0  0  0  0  0  0  0  0  0  0  0  0
  -11.1491    4.3169  -14.4485 H   0  0  0  0  0  0  0  0  0  0  0  0
  -11.3453    6.3180  -15.2924 H   0  0  0  0  0  0  0  0  0  0  0  0
  -11.0572    7.1765  -16.8437 H   0  0  0  0  0  0  0  0  0  0  0  0
  -11.8422    5.5609  -16.8437 H   0  0  0  0  0  0  0  0  0  0  0  0
  1  2  1  0
  2  3  1  0
  3  4  1  0
  4  5  2  0
  5  6  1  0
  6  7  2  0
  7  8  1  0
  8  9  2  0
  9 10  1  0
 10 11  1  0
 11 12  1  0
 12 13  2  0
 13 14  1  0
 14 15  1  0
 15 16  1  0
 16 17  2  0
 16 18  1  0
 18 19  1  0
 19 20  1  0
 20 21  2  0
 21 22  1  0
 21 23  1  0
 23 24  1  0
 14 25  2  0
 25 26  1  0
 25 27  1  0
  9 28  1  0
 28 29  2  0
 29 30  1  0
 30 31  1  0
 31 32  1  0
 30  3  2  0
 28  5  1  0
 27 11  2  0
 24 19  2  0
  1 33  1  0
  1 34  1  0
  1 35  1  0
  4 36  1  0
  7 37  1  0
  8 38  1  0
 12 39  1  0
 13 40  1  0
 15 41  1  0
 18 42  1  0
 20 43  1  0
 22 44  1  0
 22 45  1  0
 22 46  1  0
 27 47  1  0
 29 48  1  0
 32 49  1  0
 32 50  1  0
 32 51  1  0
M  END
>  <meeko>  (4) 
{"is_sidechain": false}

>  <vina_affinity_kcal_mol>  (4) 
-8.935

>  <pose_rank>  (4) 
4

$$$$

     RDKit          3D

 51 54  0  0  0  0  0  0  0  0999 V2000
   -6.4100   -3.1060   -7.6000 C   0  0  0  0  0  0  0  0  0  0  0  0
   -7.2730   -2.1290   -8.1630 O   0  0  0  0  0  0  0  0  0  0  0  0
   -7.0810   -1.7910   -9.4810 C   0  0  0  0  0  0  0  0  0  0  0  0
   -5.8880   -1.2730   -9.9990 C   0  0  0  0  0  0  0  0  0  0  0  0
   -5.7490   -0.9490  -11.3410 C   0  0  0  0  0  0  0  0  0  0  0  0
   -4.5730   -0.4530  -11.7660 N   0  0  0  0  0  0  0  0  0  0  0  0
   -4.4440   -0.1270  -13.0700 C   0  0  0  0  0  0  0  0  0  0  0  0
   -5.4470   -0.2800  -14.0000 C   0  0  0  0  0  0  0  0  0  0  0  0
   -6.6520   -0.8180  -13.5590 C   0  0  0  0  0  0  0  0  0  0  0  0
   -7.7100   -0.9610  -14.4350 O   0  0  0  0  0  0  0  0  0  0  0  0
   -8.1800    0.1780  -15.0490 C   0  0  0  0  0  0  0  0  0  0  0  0
   -8.0060    0.4490  -16.4080 C   0  0  0  0  0  0  0  0  0  0  0  0
   -8.5420    1.6160  -16.9670 C   0  0  0  0  0  0  0  0  0  0  0  0
   -9.2630    2.5170  -16.1800 C   0  0  0  0  0  0  0  0  0  0  0  0
   -9.8340    3.7090  -16.6870 N   0  0  0  0  0  0  0  0  0  0  0  0
   -9.2800    4.6000  -17.5980 C   0  0  0  0  0  0  0  0  0  0  0  0
   -8.1470    4.5100  -18.0480 O   0  0  0  0  0  0  0  0  0  0  0  0
  -10.1960    5.5880  -17.9150 N   0  0  0  0  0  0  0  0  0  0  0  0
   -9.9350    6.6700  -18.7360 C   0  0  0  0  0  0  0  0  0  0  0  0
   -9.4120    7.8990  -18.2620 C   0  0  0  0  0  0  0  0  0  0  0  0
   -9.2970    8.6850  -19.3810 C   0  0  0  0  0  0  0  0  0  0  0  0
   -8.8350   10.0600  -19.6360 C   0  0  0  0  0  0  0  0  0  0  0  0
   -9.7160    7.9790  -20.4610 O   0  0  0  0  0  0  0  0  0  0  0  0
  -10.1120    6.7190  -20.0590 N   0  0  0  0  0  0  0  0  0  0  0  0
   -9.4540    2.2110  -14.8180 C   0  0  0  0  0  0  0  0  0  0  0  0
  -10.3620    3.2710  -13.7890 Cl  0  0  0  0  0  0  0  0  0  0  0  0
   -8.9210    1.0490  -14.2560 C   0  0  0  0  0  0  0  0  0  0  0  0
   -6.8420   -1.1510  -12.2030 C   0  0  0  0  0  0  0  0  0  0  0  0
   -8.0500   -1.6720  -11.6890 C   0  0  0  0  0  0  0  0  0  0  0  0
   -8.1760   -1.9930  -10.3370 C   0  0  0  0  0  0  0  0  0  0  0  0
   -9.3110   -2.5030   -9.7600 O   0  0  0  0  0  0  0  0  0  0  0  0
  -10.5650   -2.0770  -10.2730 C   0  0  0  0  0  0  0  0  0  0  0  0
   -6.4594   -3.0501   -6.5025 H   0  0  0  0  0  0  0  0  0  0  0  0
   -6.7242   -4.1070   -7.9307 H   0  0  0  0  0  0  0  0  0  0  0  0
   -5.3779   -2.9178   -7.9307 H   0  0  0  0  0  0  0  0  0  0  0  0
   -5.0352   -1.1182   -9.3217 H   0  0  0  0  0  0  0  0  0  0  0  0
   -3.4817    0.2846  -13.4085 H   0  0  0  0  0  0  0  0  0  0  0  0
   -5.3017    0.0116  -15.0506 H   0  0  0  0  0  0  0  0  0  0  0  0
   -7.4467   -0.2558  -17.0408 H   0  0  0  0  0  0  0  0  0  0  0  0
   -8.3936    1.8251  -18.0367 H   0  0  0  0  0  0  0  0  0  0  0  0
  -10.6740    4.0070  -16.2100 H   0  0  0  0  0  0  0  0  0  0  0  0
  -11.1530    5.4650  -17.6330 H   0  0  0  0  0  0  0  0  0  0  0  0
   -9.1550    8.1643  -17.2259 H   0  0  0  0  0  0  0  0  0  0  0  0
   -8.6628   10.5725  -18.6781 H   0  0  0  0  0  0  0  0  0  0  0  0
   -7.8972   10.0312  -20.2102 H   0  0  0  0  0  0  0  0  0  0  0  0
   -9.5999   10.6033  -20.2102 H   0  0  0  0  0  0  0  0  0  0  0  0
   -9.0860    0.8234  -13.1921 H   0  0  0  0  0  0  0  0  0  0  0  0
   -8.9041   -1.8270  -12.3646 H   0  0  0  0  0  0  0  0  0  0  0  0
  -11.2434   -1.8465   -9.4384 H   0  0  0  0  0  0  0  0  0  0  0  0
  -10.4225   -1.1769  -10.8890 H   0  0  0  0  0  0  0  0  0  0  0  0
  -11.0003   -2.8777  -10.8890 H   0  0  0  0  0  0  0  0  0  0  0  0
  1  2  1  0
  2  3  1  0
  3  4  1  0
  4  5  2  0
  5  6  1  0
  6  7  2  0
  7  8  1  0
  8  9  2  0
  9 10  1  0
 10 11  1  0
 11 12  1  0
 12 13  2  0
 13 14  1  0
 14 15  1  0
 15 16  1  0
 16 17  2  0
 16 18  1  0
 18 19  1  0
 19 20  1  0
 20 21  2  0
 21 22  1  0
 21 23  1  0
 23 24  1  0
 14 25  2  0
 25 26  1  0
 25 27  1  0
  9 28  1  0
 28 29  2  0
 29 30  1  0
 30 31  1  0
 31 32  1  0
 30  3  2  0
 28  5  1  0
 27 11  2  0
 24 19  2  0
  1 33  1  0
  1 34  1  0
  1 35  1  0
  4 36  1  0
  7 37  1  0
  8 38  1  0
 12 39  1  0
 13 40  1  0
 15 41  1  0
 18 42  1  0
 20 43  1  0
 22 44  1  0
 22 45  1  0
 22 46  1  0
 27 47  1  0
 29 48  1  0
 32 49  1  0
 32 50  1  0
 32 51  1  0
M  END
>  <meeko>  (5) 
{"is_sidechain": false}

>  <vina_affinity_kcal_mol>  (5) 
-8.821

>  <pose_rank>  (5) 
5

$$$$

     RDKit          3D

 51 54  0  0  0  0  0  0  0  0999 V2000
   -8.9250    6.3160  -17.3490 C   0  0  0  0  0  0  0  0  0  0  0  0
   -8.7220    4.9590  -16.9850 O   0  0  0  0  0  0  0  0  0  0  0  0
   -9.5730    4.4140  -16.0550 C   0  0  0  0  0  0  0  0  0  0  0  0
  -10.8840    4.8490  -15.8320 C   0  0  0  0  0  0  0  0  0  0  0  0
  -11.7010    4.2610  -14.8760 C   0  0  0  0  0  0  0  0  0  0  0  0
  -12.9510    4.7340  -14.7160 N   0  0  0  0  0  0  0  0  0  0  0  0
  -13.7390    4.1690  -13.7780 C   0  0  0  0  0  0  0  0  0  0  0  0
  -13.3440    3.1220  -12.9750 C   0  0  0  0  0  0  0  0  0  0  0  0
  -12.0600    2.6200  -13.1640 C   0  0  0  0  0  0  0  0  0  0  0  0
  -11.5910    1.5970  -12.3640 O   0  0  0  0  0  0  0  0  0  0  0  0
  -12.4080    1.1700  -11.3410 C   0  0  0  0  0  0  0  0  0  0  0  0
  -13.7640    1.4870  -11.2540 C   0  0  0  0  0  0  0  0  0  0  0  0
  -14.5380    0.9880  -10.1990 C   0  0  0  0  0  0  0  0  0  0  0  0
  -13.9680    0.1610   -9.2280 C   0  0  0  0  0  0  0  0  0  0  0  0
  -14.6980   -0.3810   -8.1410 N   0  0  0  0  0  0  0  0  0  0  0  0
  -15.3130   -1.6240   -8.0620 C   0  0  0  0  0  0  0  0  0  0  0  0
  -15.3720   -2.4240   -8.9850 O   0  0  0  0  0  0  0  0  0  0  0  0
  -15.8360   -1.8170   -6.7960 N   0  0  0  0  0  0  0  0  0  0  0  0
  -16.5750   -2.9190   -6.4080 C   0  0  0  0  0  0  0  0  0  0  0  0
  -16.0130   -4.2060   -6.2180 C   0  0  0  0  0  0  0  0  0  0  0  0
  -17.0680   -4.9960   -5.8330 C   0  0  0  0  0  0  0  0  0  0  0  0
  -17.2210   -6.4160   -5.4780 C   0  0  0  0  0  0  0  0  0  0  0  0
  -18.1920   -4.2380   -5.7880 O   0  0  0  0  0  0  0  0  0  0  0  0
  -17.8850   -2.9400   -6.1430 N   0  0  0  0  0  0  0  0  0  0  0  0
  -12.6060   -0.1740   -9.3490 C   0  0  0  0  0  0  0  0  0  0  0  0
  -11.8410   -1.2170   -8.1960 Cl  0  0  0  0  0  0  0  0  0  0  0  0
  -11.8300    0.3230  -10.4000 C   0  0  0  0  0  0  0  0  0  0  0  0
  -11.1920    3.1940  -14.1140 C   0  0  0  0  0  0  0  0  0  0  0  0
   -9.8700    2.7490  -14.3310 C   0  0  0  0  0  0  0  0  0  0  0  0
   -9.0580    3.3500  -15.2950 C   0  0  0  0  0  0  0  0  0  0  0  0
   -7.7670    2.9780  -15.5690 O   0  0  0  0  0  0  0  0  0  0  0  0
   -6.9270    2.6450  -14.4730 C   0  0  0  0  0  0  0  0  0  0  0  0
   -9.0168    6.9295  -16.4406 H   0  0  0  0  0  0  0  0  0  0  0  0
   -8.0695    6.6679  -17.9442 H   0  0  0  0  0  0  0  0  0  0  0  0
   -9.8460    6.4021  -17.9442 H   0  0  0  0  0  0  0  0  0  0  0  0
  -11.2791    5.6819  -16.4322 H   0  0  0  0  0  0  0  0  0  0  0  0
  -14.7558    4.5676  -13.6469 H   0  0  0  0  0  0  0  0  0  0  0  0
  -14.0169    2.6994  -12.2144 H   0  0  0  0  0  0  0  0  0  0  0  0
  -14.2265    2.1309  -12.0165 H   0  0  0  0  0  0  0  0  0  0  0  0
  -15.6045    1.2496  -10.1343 H   0  0  0  0  0  0  0  0  0  0  0  0
  -14.9130    0.2820   -7.4090 H   0  0  0  0  0  0  0  0  0  0  0  0
  -15.5730   -1.1790   -6.0640 H   0  0  0  0  0  0  0  0  0  0  0  0
  -14.9629   -4.5060   -6.3499 H   0  0  0  0  0  0  0  0  0  0  0  0
  -17.2323   -6.5211   -4.3831 H   0  0  0  0  0  0  0  0  0  0  0  0
  -18.1655   -6.7979   -5.8928 H   0  0  0  0  0  0  0  0  0  0  0  0
  -16.3795   -6.9904   -5.8928 H   0  0  0  0  0  0  0  0  0  0  0  0
  -10.7686    0.0463  -10.4829 H   0  0  0  0  0  0  0  0  0  0  0  0
   -9.4735    1.9162  -13.7316 H   0  0  0  0  0  0  0  0  0  0  0  0
   -7.4541    2.8539  -13.5304 H   0  0  0  0  0  0  0  0  0  0  0  0
   -6.6692    1.5767  -14.5199 H   0  0  0  0  0  0  0  0  0  0  0  0
   -6.0072    3.2465  -14.5199 H   0  0  0  0  0  0  0  0  0  0  0  0
  1  2  1  0
  2  3  1  0
  3  4  1  0
  4  5  2  0
  5  6  1  0
  6  7  2  0
  7  8  1  0
  8  9  2  0
  9 10  1  0
 10 11  1  0
 11 12  1  0
 12 13  2  0
 13 14  1  0
 14 15  1  0
 15 16  1  0
 16 17  2  0
 16 18  1  0
 18 19  1  0
 19 20  1  0
 20 21  2  0
 21 22  1  0
 21 23  1  0
 23 24  1  0
 14 25  2  0
 25 26  1  0
 25 27  1  0
  9 28  1  0
 28 29  2  0
 29 30  1  0
 30 31  1  0
 31 32  1  0
 30  3  2  0
 28  5  1  0
 27 11  2  0
 24 19  2  0
  1 33  1  0
  1 34  1  0
  1 35  1  0
  4 36  1  0
  7 37  1  0
  8 38  1  0
 12 39  1  0
 13 40  1  0
 15 41  1  0
 18 42  1  0
 20 43  1  0
 22 44  1  0
 22 45  1  0
 22 46  1  0
 27 47  1  0
 29 48  1  0
 32 49  1  0
 32 50  1  0
 32 51  1  0
M  END
>  <meeko>  (6) 
{"is_sidechain": false}

>  <vina_affinity_kcal_mol>  (6) 
-8.713

>  <pose_rank>  (6) 
6

$$$$

     RDKit          3D

 51 54  0  0  0  0  0  0  0  0999 V2000
   -5.1810    4.4830  -16.9020 C   0  0  0  0  0  0  0  0  0  0  0  0
   -6.5360    4.0610  -16.9230 O   0  0  0  0  0  0  0  0  0  0  0  0
   -6.8890    3.0070  -16.1150 C   0  0  0  0  0  0  0  0  0  0  0  0
   -6.0050    2.3310  -15.2660 C   0  0  0  0  0  0  0  0  0  0  0  0
   -6.4150    1.2710  -14.4710 C   0  0  0  0  0  0  0  0  0  0  0  0
   -5.5080    0.6670  -13.6810 N   0  0  0  0  0  0  0  0  0  0  0  0
   -5.9080   -0.3720  -12.9180 C   0  0  0  0  0  0  0  0  0  0  0  0
   -7.1990   -0.8490  -12.8890 C   0  0  0  0  0  0  0  0  0  0  0  0
   -8.1380   -0.2040  -13.6880 C   0  0  0  0  0  0  0  0  0  0  0  0
   -9.4400   -0.6590  -13.7320 O   0  0  0  0  0  0  0  0  0  0  0  0
  -10.2610   -0.3270  -12.6780 C   0  0  0  0  0  0  0  0  0  0  0  0
  -10.9490    0.8850  -12.5880 C   0  0  0  0  0  0  0  0  0  0  0  0
  -11.7920    1.1370  -11.4990 C   0  0  0  0  0  0  0  0  0  0  0  0
  -11.9650    0.1800  -10.4960 C   0  0  0  0  0  0  0  0  0  0  0  0
  -12.8080    0.3710   -9.3740 N   0  0  0  0  0  0  0  0  0  0  0  0
  -14.1610    0.0790   -9.2640 C   0  0  0  0  0  0  0  0  0  0  0  0
  -14.8540   -0.3340  -10.1830 O   0  0  0  0  0  0  0  0  0  0  0  0
  -14.5970    0.3180   -7.9730 N   0  0  0  0  0  0  0  0  0  0  0  0
  -15.9080    0.1970   -7.5480 C   0  0  0  0  0  0  0  0  0  0  0  0
  -16.4560   -1.0090   -7.0460 C   0  0  0  0  0  0  0  0  0  0  0  0
  -17.7560   -0.7010   -6.7340 C   0  0  0  0  0  0  0  0  0  0  0  0
  -18.8940   -1.4530   -6.1810 C   0  0  0  0  0  0  0  0  0  0  0  0
  -17.9800    0.6060   -7.0240 O   0  0  0  0  0  0  0  0  0  0  0  0
  -16.8250    1.1690   -7.5280 N   0  0  0  0  0  0  0  0  0  0  0  0
  -11.2880   -1.0490  -10.6200 C   0  0  0  0  0  0  0  0  0  0  0  0
  -11.4780   -2.2920   -9.4270 Cl  0  0  0  0  0  0  0  0  0  0  0  0
  -10.4450   -1.3040  -11.7040 C   0  0  0  0  0  0  0  0  0  0  0  0
   -7.7630    0.8690  -14.5200 C   0  0  0  0  0  0  0  0  0  0  0  0
   -8.6620    1.5450  -15.3740 C   0  0  0  0  0  0  0  0  0  0  0  0
   -8.2350    2.6100  -16.1700 C   0  0  0  0  0  0  0  0  0  0  0  0
   -9.0420    3.3180  -17.0230 O   0  0  0  0  0  0  0  0  0  0  0  0
   -9.9430    4.2580  -16.4550 C   0  0  0  0  0  0  0  0  0  0  0  0
   -4.8456    4.5875  -15.8596 H   0  0  0  0  0  0  0  0  0  0  0  0
   -4.5566    3.7368  -17.4151 H   0  0  0  0  0  0  0  0  0  0  0  0
   -5.0907    5.4518  -17.4151 H   0  0  0  0  0  0  0  0  0  0  0  0
   -4.9530    2.6502  -15.2281 H   0  0  0  0  0  0  0  0  0  0  0  0
   -5.1587   -0.8664  -12.2823 H   0  0  0  0  0  0  0  0  0  0  0  0
   -7.4774   -1.7065  -12.2588 H   0  0  0  0  0  0  0  0  0  0  0  0
  -10.8282    1.6439  -13.3751 H   0  0  0  0  0  0  0  0  0  0  0  0
  -12.3233    2.0979  -11.4325 H   0  0  0  0  0  0  0  0  0  0  0  0
  -12.3980    0.9210   -8.6320 H   0  0  0  0  0  0  0  0  0  0  0  0
  -13.9110    0.4780   -7.2550 H   0  0  0  0  0  0  0  0  0  0  0  0
  -15.9504   -1.9792   -6.9315 H   0  0  0  0  0  0  0  0  0  0  0  0
  -18.8524   -1.4255   -5.0821 H   0  0  0  0  0  0  0  0  0  0  0  0
  -19.8352   -0.9984   -6.5238 H   0  0  0  0  0  0  0  0  0  0  0  0
  -18.8449   -2.4971   -6.5238 H   0  0  0  0  0  0  0  0  0  0  0  0
   -9.9292   -2.2720  -11.7875 H   0  0  0  0  0  0  0  0  0  0  0  0
   -9.7146    1.2278  -15.4128 H   0  0  0  0  0  0  0  0  0  0  0  0
   -9.8886    4.2013  -15.3578 H   0  0  0  0  0  0  0  0  0  0  0  0
   -9.6706    5.2718  -16.7837 H   0  0  0  0  0  0  0  0  0  0  0  0
  -10.9674    4.0288  -16.7837 H   0  0  0  0  0  0  0  0  0  0  0  0
  1  2  1  0
  2  3  1  0
  3  4  1  0
  4  5  2  0
  5  6  1  0
  6  7  2  0
  7  8  1  0
  8  9  2  0
  9 10  1  0
 10 11  1  0
 11 12  1  0
 12 13  2  0
 13 14  1  0
 14 15  1  0
 15 16  1  0
 16 17  2  0
 16 18  1  0
 18 19  1  0
 19 20  1  0
 20 21  2  0
 21 22  1  0
 21 23  1  0
 23 24  1  0
 14 25  2  0
 25 26  1  0
 25 27  1  0
  9 28  1  0
 28 29  2  0
 29 30  1  0
 30 31  1  0
 31 32  1  0
 30  3  2  0
 28  5  1  0
 27 11  2  0
 24 19  2  0
  1 33  1  0
  1 34  1  0
  1 35  1  0
  4 36  1  0
  7 37  1  0
  8 38  1  0
 12 39  1  0
 13 40  1  0
 15 41  1  0
 18 42  1  0
 20 43  1  0
 22 44  1  0
 22 45  1  0
 22 46  1  0
 27 47  1  0
 29 48  1  0
 32 49  1  0
 32 50  1  0
 32 51  1  0
M  END
>  <meeko>  (7) 
{"is_sidechain": false}

>  <vina_affinity_kcal_mol>  (7) 
-8.671

>  <pose_rank>  (7) 
7

$$$$

     RDKit          3D

 51 54  0  0  0  0  0  0  0  0999 V2000
  -12.1190   -0.3370   -3.9750 C   0  0  0  0  0  0  0  0  0  0  0  0
  -11.1970   -0.5350   -5.0370 O   0  0  0  0  0  0  0  0  0  0  0  0
  -11.6310   -0.2770   -6.3150 C   0  0  0  0  0  0  0  0  0  0  0  0
  -12.9170    0.1720   -6.6380 C   0  0  0  0  0  0  0  0  0  0  0  0
  -13.3020    0.4170   -7.9480 C   0  0  0  0  0  0  0  0  0  0  0  0
  -14.5560    0.8440   -8.1830 N   0  0  0  0  0  0  0  0  0  0  0  0
  -14.9330    1.0700   -9.4590 C   0  0  0  0  0  0  0  0  0  0  0  0
  -14.1030    0.8980  -10.5440 C   0  0  0  0  0  0  0  0  0  0  0  0
  -12.7990    0.4800  -10.2930 C   0  0  0  0  0  0  0  0  0  0  0  0
  -11.9300    0.2520  -11.3400 O   0  0  0  0  0  0  0  0  0  0  0  0
  -11.6950    1.2970  -12.2050 C   0  0  0  0  0  0  0  0  0  0  0  0
  -12.7030    2.1180  -12.7150 C   0  0  0  0  0  0  0  0  0  0  0  0
  -12.3810    3.1820  -13.5660 C   0  0  0  0  0  0  0  0  0  0  0  0
  -11.0520    3.4440  -13.9080 C   0  0  0  0  0  0  0  0  0  0  0  0
  -10.6620    4.5080  -14.7570 N   0  0  0  0  0  0  0  0  0  0  0  0
  -10.2950    4.4410  -16.0960 C   0  0  0  0  0  0  0  0  0  0  0  0
  -10.1850    3.4000  -16.7280 O   0  0  0  0  0  0  0  0  0  0  0  0
  -10.0820    5.7130  -16.5960 N   0  0  0  0  0  0  0  0  0  0  0  0
   -9.6340    5.9920  -17.8740 C   0  0  0  0  0  0  0  0  0  0  0  0
  -10.4320    6.6320  -18.8560 C   0  0  0  0  0  0  0  0  0  0  0  0
   -9.6210    6.7250  -19.9600 C   0  0  0  0  0  0  0  0  0  0  0  0
   -9.7830    7.2640  -21.3200 C   0  0  0  0  0  0  0  0  0  0  0  0
   -8.4120    6.1830  -19.6650 O   0  0  0  0  0  0  0  0  0  0  0  0
   -8.4190    5.7290  -18.3620 N   0  0  0  0  0  0  0  0  0  0  0  0
  -10.0460    2.6250  -13.3590 C   0  0  0  0  0  0  0  0  0  0  0  0
   -8.3750    2.9100  -13.7190 Cl  0  0  0  0  0  0  0  0  0  0  0  0
  -10.3620    1.5620  -12.5110 C   0  0  0  0  0  0  0  0  0  0  0  0
  -12.3680    0.2090   -8.9790 C   0  0  0  0  0  0  0  0  0  0  0  0
  -11.0680   -0.2450   -8.6630 C   0  0  0  0  0  0  0  0  0  0  0  0
  -10.6940   -0.4880   -7.3400 C   0  0  0  0  0  0  0  0  0  0  0  0
   -9.4550   -0.9270   -6.9490 O   0  0  0  0  0  0  0  0  0  0  0  0
   -8.3980    0.0210   -6.9070 C   0  0  0  0  0  0  0  0  0  0  0  0
  -11.5988   -0.4487   -3.0122 H   0  0  0  0  0  0  0  0  0  0  0  0
  -12.5476    0.6737   -4.0451 H   0  0  0  0  0  0  0  0  0  0  0  0
  -12.9247   -1.0826   -4.0451 H   0  0  0  0  0  0  0  0  0  0  0  0
  -13.6440    0.3354   -5.8288 H   0  0  0  0  0  0  0  0  0  0  0  0
  -15.9625    1.4112   -9.6427 H   0  0  0  0  0  0  0  0  0  0  0  0
  -14.4564    1.0836  -11.5690 H   0  0  0  0  0  0  0  0  0  0  0  0
  -13.7529    1.9282  -12.4473 H   0  0  0  0  0  0  0  0  0  0  0  0
  -13.1825    3.8182  -13.9695 H   0  0  0  0  0  0  0  0  0  0  0  0
  -10.4920    5.3840  -14.2820 H   0  0  0  0  0  0  0  0  0  0  0  0
  -10.3770    6.5020  -16.0470 H   0  0  0  0  0  0  0  0  0  0  0  0
  -11.4714    6.9777  -18.7555 H   0  0  0  0  0  0  0  0  0  0  0  0
  -10.0992    8.3160  -21.2622 H   0  0  0  0  0  0  0  0  0  0  0  0
   -8.8253    7.1979  -21.8571 H   0  0  0  0  0  0  0  0  0  0  0  0
  -10.5456    6.6809  -21.8571 H   0  0  0  0  0  0  0  0  0  0  0  0
   -9.5626    0.9369  -12.0866 H   0  0  0  0  0  0  0  0  0  0  0  0
  -10.3399   -0.4094   -9.4710 H   0  0  0  0  0  0  0  0  0  0  0  0
   -8.1480    0.2452   -5.8595 H   0  0  0  0  0  0  0  0  0  0  0  0
   -7.5141   -0.3927   -7.4145 H   0  0  0  0  0  0  0  0  0  0  0  0
   -8.7134    0.9446   -7.4145 H   0  0  0  0  0  0  0  0  0  0  0  0
  1  2  1  0
  2  3  1  0
  3  4  1  0
  4  5  2  0
  5  6  1  0
  6  7  2  0
  7  8  1  0
  8  9  2  0
  9 10  1  0
 10 11  1  0
 11 12  1  0
 12 13  2  0
 13 14  1  0
 14 15  1  0
 15 16  1  0
 16 17  2  0
 16 18  1  0
 18 19  1  0
 19 20  1  0
 20 21  2  0
 21 22  1  0
 21 23  1  0
 23 24  1  0
 14 25  2  0
 25 26  1  0
 25 27  1  0
  9 28  1  0
 28 29  2  0
 29 30  1  0
 30 31  1  0
 31 32  1  0
 30  3  2  0
 28  5  1  0
 27 11  2  0
 24 19  2  0
  1 33  1  0
  1 34  1  0
  1 35  1  0
  4 36  1  0
  7 37  1  0
  8 38  1  0
 12 39  1  0
 13 40  1  0
 15 41  1  0
 18 42  1  0
 20 43  1  0
 22 44  1  0
 22 45  1  0
 22 46  1  0
 27 47  1  0
 29 48  1  0
 32 49  1  0
 32 50  1  0
 32 51  1  0
M  END
>  <meeko>  (8) 
{"is_sidechain": false}

>  <vina_affinity_kcal_mol>  (8) 
-8.653

>  <pose_rank>  (8) 
8

$$$$

     RDKit          3D

 51 54  0  0  0  0  0  0  0  0999 V2000
   -4.8090   -1.3140   -8.4700 C   0  0  0  0  0  0  0  0  0  0  0  0
   -5.1880   -2.1190   -9.5760 O   0  0  0  0  0  0  0  0  0  0  0  0
   -6.4470   -1.9370  -10.0950 C   0  0  0  0  0  0  0  0  0  0  0  0
   -7.6240   -1.9520   -9.3380 C   0  0  0  0  0  0  0  0  0  0  0  0
   -8.8720   -1.7630   -9.9160 C   0  0  0  0  0  0  0  0  0  0  0  0
   -9.9600   -1.7930   -9.1250 N   0  0  0  0  0  0  0  0  0  0  0  0
  -11.1730   -1.6210   -9.6910 C   0  0  0  0  0  0  0  0  0  0  0  0
  -11.3670   -1.4040  -11.0360 C   0  0  0  0  0  0  0  0  0  0  0  0
  -10.2360   -1.3480  -11.8450 C   0  0  0  0  0  0  0  0  0  0  0  0
  -10.3650   -1.1720  -13.2080 O   0  0  0  0  0  0  0  0  0  0  0  0
  -10.3030    0.1170  -13.6870 C   0  0  0  0  0  0  0  0  0  0  0  0
   -9.2040    0.6300  -14.3780 C   0  0  0  0  0  0  0  0  0  0  0  0
   -9.2270    1.9430  -14.8630 C   0  0  0  0  0  0  0  0  0  0  0  0
  -10.3500    2.7530  -14.6720 C   0  0  0  0  0  0  0  0  0  0  0  0
  -10.4380    4.0850  -15.1440 N   0  0  0  0  0  0  0  0  0  0  0  0
  -10.0900    4.5710  -16.3980 C   0  0  0  0  0  0  0  0  0  0  0  0
   -9.5690    3.8990  -17.2770 O   0  0  0  0  0  0  0  0  0  0  0  0
  -10.4200    5.9110  -16.4990 N   0  0  0  0  0  0  0  0  0  0  0  0
  -10.1390    6.7120  -17.5900 C   0  0  0  0  0  0  0  0  0  0  0  0
  -10.6680    6.4780  -18.8850 C   0  0  0  0  0  0  0  0  0  0  0  0
  -10.1580    7.4900  -19.6590 C   0  0  0  0  0  0  0  0  0  0  0  0
  -10.2780    7.8680  -21.0770 C   0  0  0  0  0  0  0  0  0  0  0  0
   -9.3780    8.2860  -18.8860 O   0  0  0  0  0  0  0  0  0  0  0  0
   -9.3690    7.8030  -17.5930 N   0  0  0  0  0  0  0  0  0  0  0  0
  -11.4610    2.2080  -14.0010 C   0  0  0  0  0  0  0  0  0  0  0  0
  -12.8980    3.1460  -13.7530 Cl  0  0  0  0  0  0  0  0  0  0  0  0
  -11.4420    0.8990  -13.5140 C   0  0  0  0  0  0  0  0  0  0  0  0
   -8.9500   -1.5470  -11.3030 C   0  0  0  0  0  0  0  0  0  0  0  0
   -7.7680   -1.5300  -12.0750 C   0  0  0  0  0  0  0  0  0  0  0  0
   -6.5190   -1.7230  -11.4820 C   0  0  0  0  0  0  0  0  0  0  0  0
   -5.3260   -1.7210  -12.1580 O   0  0  0  0  0  0  0  0  0  0  0  0
   -4.8470   -0.4780  -12.6520 C   0  0  0  0  0  0  0  0  0  0  0  0
   -5.0553   -1.8371   -7.5342 H   0  0  0  0  0  0  0  0  0  0  0  0
   -3.7264   -1.1231   -8.5093 H   0  0  0  0  0  0  0  0  0  0  0  0
   -5.3516   -0.3579   -8.5093 H   0  0  0  0  0  0  0  0  0  0  0  0
   -7.5583   -2.1185   -8.2527 H   0  0  0  0  0  0  0  0  0  0  0  0
  -12.0583   -1.6563   -9.0391 H   0  0  0  0  0  0  0  0  0  0  0  0
  -12.3764   -1.2797  -11.4552 H   0  0  0  0  0  0  0  0  0  0  0  0
   -8.3170    0.0005  -14.5420 H   0  0  0  0  0  0  0  0  0  0  0  0
   -8.3531    2.3410  -15.3995 H   0  0  0  0  0  0  0  0  0  0  0  0
  -10.6360    4.7710  -14.4280 H   0  0  0  0  0  0  0  0  0  0  0  0
  -11.0070    6.3160  -15.7900 H   0  0  0  0  0  0  0  0  0  0  0  0
  -11.3389    5.6650  -19.1995 H   0  0  0  0  0  0  0  0  0  0  0  0
  -10.6101    8.9141  -21.1508 H   0  0  0  0  0  0  0  0  0  0  0  0
   -9.3007    7.7579  -21.5698 H   0  0  0  0  0  0  0  0  0  0  0  0
  -11.0128    7.2144  -21.5698 H   0  0  0  0  0  0  0  0  0  0  0  0
  -12.3217    0.4883  -12.9968 H   0  0  0  0  0  0  0  0  0  0  0  0
   -7.8322   -1.3621  -13.1602 H   0  0  0  0  0  0  0  0  0  0  0  0
   -4.5937    0.1793  -11.8071 H   0  0  0  0  0  0  0  0  0  0  0  0
   -3.9501   -0.6484  -13.2657 H   0  0  0  0  0  0  0  0  0  0  0  0
   -5.6263   -0.0025  -13.2657 H   0  0  0  0  0  0  0  0  0  0  0  0
  1  2  1  0
  2  3  1  0
  3  4  1  0
  4  5  2  0
  5  6  1  0
  6  7  2  0
  7  8  1  0
  8  9  2  0
  9 10  1  0
 10 11  1  0
 11 12  1  0
 12 13  2  0
 13 14  1  0
 14 15  1  0
 15 16  1  0
 16 17  2  0
 16 18  1  0
 18 19  1  0
 19 20  1  0
 20 21  2  0
 21 22  1  0
 21 23  1  0
 23 24  1  0
 14 25  2  0
 25 26  1  0
 25 27  1  0
  9 28  1  0
 28 29  2  0
 29 30  1  0
 30 31  1  0
 31 32  1  0
 30  3  2  0
 28  5  1  0
 27 11  2  0
 24 19  2  0
  1 33  1  0
  1 34  1  0
  1 35  1  0
  4 36  1  0
  7 37  1  0
  8 38  1  0
 12 39  1  0
 13 40  1  0
 15 41  1  0
 18 42  1  0
 20 43  1  0
 22 44  1  0
 22 45  1  0
 22 46  1  0
 27 47  1  0
 29 48  1  0
 32 49  1  0
 32 50  1  0
 32 51  1  0
M  END
>  <meeko>  (9) 
{"is_sidechain": false}

>  <vina_affinity_kcal_mol>  (9) 
-8.645

>  <pose_rank>  (9) 
9

$$$$

     RDKit          3D

 51 54  0  0  0  0  0  0  0  0999 V2000
  -12.2060   -4.1350   -7.3100 C   0  0  0  0  0  0  0  0  0  0  0  0
  -12.0340   -2.7460   -7.5530 O   0  0  0  0  0  0  0  0  0  0  0  0
  -11.3810   -2.3760   -8.7030 C   0  0  0  0  0  0  0  0  0  0  0  0
   -9.9880   -2.3340   -8.8430 C   0  0  0  0  0  0  0  0  0  0  0  0
   -9.3800   -1.9510  -10.0300 C   0  0  0  0  0  0  0  0  0  0  0  0
   -8.0360   -1.9330  -10.0900 N   0  0  0  0  0  0  0  0  0  0  0  0
   -7.4470   -1.5490  -11.2410 C   0  0  0  0  0  0  0  0  0  0  0  0
   -8.1410   -1.1800  -12.3710 C   0  0  0  0  0  0  0  0  0  0  0  0
   -9.5310   -1.2260  -12.3110 C   0  0  0  0  0  0  0  0  0  0  0  0
  -10.2850   -0.8320  -13.3980 O   0  0  0  0  0  0  0  0  0  0  0  0
   -9.9700    0.3740  -13.9820 C   0  0  0  0  0  0  0  0  0  0  0  0
  -10.2870    1.6110  -13.4160 C   0  0  0  0  0  0  0  0  0  0  0  0
   -9.9040    2.7960  -14.0560 C   0  0  0  0  0  0  0  0  0  0  0  0
   -9.1940    2.7600  -15.2580 C   0  0  0  0  0  0  0  0  0  0  0  0
   -8.7740    3.9220  -15.9490 N   0  0  0  0  0  0  0  0  0  0  0  0
   -9.4870    4.6650  -16.8820 C   0  0  0  0  0  0  0  0  0  0  0  0
  -10.5930    4.3610  -17.3050 O   0  0  0  0  0  0  0  0  0  0  0  0
   -8.7650    5.7860  -17.2510 N   0  0  0  0  0  0  0  0  0  0  0  0
   -9.1590    6.6950  -18.2160 C   0  0  0  0  0  0  0  0  0  0  0  0
   -9.3220    6.3580  -19.5830 C   0  0  0  0  0  0  0  0  0  0  0  0
   -9.7230    7.5240  -20.1860 C   0  0  0  0  0  0  0  0  0  0  0  0
  -10.0670    7.9100  -21.5640 C   0  0  0  0  0  0  0  0  0  0  0  0
   -9.8040    8.5000  -19.2470 O   0  0  0  0  0  0  0  0  0  0  0  0
   -9.4560    7.9820  -18.0160 N   0  0  0  0  0  0  0  0  0  0  0  0
   -8.8560    1.5040  -15.7980 C   0  0  0  0  0  0  0  0  0  0  0  0
   -7.9530    1.3840  -17.2720 Cl  0  0  0  0  0  0  0  0  0  0  0  0
   -9.2370    0.3180  -15.1640 C   0  0  0  0  0  0  0  0  0  0  0  0
  -10.1910   -1.5970  -11.1230 C   0  0  0  0  0  0  0  0  0  0  0  0
  -11.5970   -1.6350  -10.9910 C   0  0  0  0  0  0  0  0  0  0  0  0
  -12.1960   -2.0220   -9.7910 C   0  0  0  0  0  0  0  0  0  0  0  0
  -13.5500   -2.0860   -9.5810 O   0  0  0  0  0  0  0  0  0  0  0  0
  -14.2870   -0.8730   -9.6360 C   0  0  0  0  0  0  0  0  0  0  0  0
  -12.2286   -4.3175   -6.2255 H   0  0  0  0  0  0  0  0  0  0  0  0
  -13.1526   -4.4712   -7.7582 H   0  0  0  0  0  0  0  0  0  0  0  0
  -11.3700   -4.6919   -7.7582 H   0  0  0  0  0  0  0  0  0  0  0  0
   -9.3571   -2.6130   -7.9862 H   0  0  0  0  0  0  0  0  0  0  0  0
   -6.3478   -1.5296  -11.2789 H   0  0  0  0  0  0  0  0  0  0  0  0
   -7.6181   -0.8615  -13.2849 H   0  0  0  0  0  0  0  0  0  0  0  0
  -10.8388    1.6543  -12.4654 H   0  0  0  0  0  0  0  0  0  0  0  0
  -10.1652    3.7657  -13.6072 H   0  0  0  0  0  0  0  0  0  0  0  0
   -7.7900    4.1340  -15.8540 H   0  0  0  0  0  0  0  0  0  0  0  0
   -7.9550    6.0360  -16.7110 H   0  0  0  0  0  0  0  0  0  0  0  0
   -9.1623    5.3780  -20.0564 H   0  0  0  0  0  0  0  0  0  0  0  0
  -10.7987    8.7311  -21.5430 H   0  0  0  0  0  0  0  0  0  0  0  0
   -9.1592    8.2413  -22.0895 H   0  0  0  0  0  0  0  0  0  0  0  0
  -10.5002    7.0462  -22.0895 H   0  0  0  0  0  0  0  0  0  0  0  0
   -8.9591   -0.6543  -15.5968 H   0  0  0  0  0  0  0  0  0  0  0  0
  -12.2292   -1.3554  -11.8466 H   0  0  0  0  0  0  0  0  0  0  0  0
  -14.4981   -0.5256   -8.6139 H   0  0  0  0  0  0  0  0  0  0  0  0
  -13.6993   -0.1107  -10.1684 H   0  0  0  0  0  0  0  0  0  0  0  0
  -15.2344   -1.0434  -10.1684 H   0  0  0  0  0  0  0  0  0  0  0  0
  1  2  1  0
  2  3  1  0
  3  4  1  0
  4  5  2  0
  5  6  1  0
  6  7  2  0
  7  8  1  0
  8  9  2  0
  9 10  1  0
 10 11  1  0
 11 12  1  0
 12 13  2  0
 13 14  1  0
 14 15  1  0
 15 16  1  0
 16 17  2  0
 16 18  1  0
 18 19  1  0
 19 20  1  0
 20 21  2  0
 21 22  1  0
 21 23  1  0
 23 24  1  0
 14 25  2  0
 25 26  1  0
 25 27  1  0
  9 28  1  0
 28 29  2  0
 29 30  1  0
 30 31  1  0
 31 32  1  0
 30  3  2  0
 28  5  1  0
 27 11  2  0
 24 19  2  0
  1 33  1  0
  1 34  1  0
  1 35  1  0
  4 36  1  0
  7 37  1  0
  8 38  1  0
 12 39  1  0
 13 40  1  0
 15 41  1  0
 18 42  1  0
 20 43  1  0
 22 44  1  0
 22 45  1  0
 22 46  1  0
 27 47  1  0
 29 48  1  0
 32 49  1  0
 32 50  1  0
 32 51  1  0
M  END
>  <meeko>  (10) 
{"is_sidechain": false}

>  <vina_affinity_kcal_mol>  (10) 
-8.569

>  <pose_rank>  (10) 
10

$$$$
