
     RDKit          3D

 42 45  0  0  0  0  0  0  0  0999 V2000
   -4.8820   -1.7827    1.0058 C   0  0  0  0  0  0  0  0  0  0  0  0
   -4.2715   -0.4834    0.7261 N   0  0  0  0  0  0  0  0  0  0  0  0
   -4.5002    0.5281    1.7638 C   0  0  0  0  0  0  0  0  0  0  0  0
   -2.8902   -0.5372    0.3871 C   0  0  0  0  0  0  0  0  0  0  0  0
   -1.9867   -1.2915    1.1503 C   0  0  0  0  0  0  0  0  0  0  0  0
   -0.6304   -1.3132    0.8396 C   0  0  0  0  0  0  0  0  0  0  0  0
   -0.1361   -0.5679   -0.2359 C   0  0  0  0  0  0  0  0  0  0  0  0
    1.3036   -0.6610   -0.5308 C   0  0  0  0  0  0  0  0  0  0  0  0
    2.2910   -0.1190    0.1969 C   0  0  0  0  0  0  0  0  0  0  0  0
    2.1693    0.6960    1.4621 C   0  0  0  0  0  0  0  0  0  0  0  0
    1.1700    1.0017    2.0813 O   0  0  0  0  0  0  0  0  0  0  0  0
    3.4746    1.0307    1.7948 N   0  0  0  0  0  0  0  0  0  0  0  0
    4.3848    0.5114    0.8801 C   0  0  0  0  0  0  0  0  0  0  0  0
    5.7574    0.6504    0.9081 C   0  0  0  0  0  0  0  0  0  0  0  0
    6.4840    0.0407   -0.1173 C   0  0  0  0  0  0  0  0  0  0  0  0
    5.8295   -0.6831   -1.1315 C   0  0  0  0  0  0  0  0  0  0  0  0
    4.4355   -0.8105   -1.1393 C   0  0  0  0  0  0  0  0  0  0  0  0
    3.7213   -0.2040   -0.1210 C   0  0  0  0  0  0  0  0  0  0  0  0
   -1.0163    0.2113   -1.0321 C   0  0  0  0  0  0  0  0  0  0  0  0
   -0.5705    0.9863   -2.1318 C   0  0  0  0  0  0  0  0  0  0  0  0
   -1.4501    1.7394   -2.9103 C   0  0  0  0  0  0  0  0  0  0  0  0
   -2.8026    1.7381   -2.6116 C   0  0  0  0  0  0  0  0  0  0  0  0
   -3.2685    0.9891   -1.5314 C   0  0  0  0  0  0  0  0  0  0  0  0
   -2.4032    0.2215   -0.7180 C   0  0  0  0  0  0  0  0  0  0  0  0
   -5.9723   -1.6758    1.0211 H   0  0  0  0  0  0  0  0  0  0  0  0
   -4.6414   -2.5091    0.2211 H   0  0  0  0  0  0  0  0  0  0  0  0
   -4.5759   -2.1872    1.9768 H   0  0  0  0  0  0  0  0  0  0  0  0
   -4.1153    1.5084    1.4599 H   0  0  0  0  0  0  0  0  0  0  0  0
   -5.5761    0.6449    1.9348 H   0  0  0  0  0  0  0  0  0  0  0  0
   -4.0352    0.2452    2.7155 H   0  0  0  0  0  0  0  0  0  0  0  0
   -2.3247   -1.8532    2.0152 H   0  0  0  0  0  0  0  0  0  0  0  0
    0.0418   -1.9030    1.4581 H   0  0  0  0  0  0  0  0  0  0  0  0
    1.5260   -1.2142   -1.4392 H   0  0  0  0  0  0  0  0  0  0  0  0
    3.6998    1.5830    2.6072 H   0  0  0  0  0  0  0  0  0  0  0  0
    6.2588    1.2083    1.6903 H   0  0  0  0  0  0  0  0  0  0  0  0
    7.5686    0.1251   -0.1341 H   0  0  0  0  0  0  0  0  0  0  0  0
    6.4168   -1.1497   -1.9200 H   0  0  0  0  0  0  0  0  0  0  0  0
    3.9416   -1.3709   -1.9255 H   0  0  0  0  0  0  0  0  0  0  0  0
    0.4849    1.0165   -2.3925 H   0  0  0  0  0  0  0  0  0  0  0  0
   -1.0748    2.3239   -3.7454 H   0  0  0  0  0  0  0  0  0  0  0  0
   -3.4993    2.3170   -3.2108 H   0  0  0  0  0  0  0  0  0  0  0  0
   -4.3360    0.9996   -1.3176 H   0  0  0  0  0  0  0  0  0  0  0  0
  1  2  1  0
  2  3  1  0
  2  4  1  0
  4  5  2  0
  5  6  1  0
  6  7  2  0
  7  8  1  0
  8  9  2  0
  9 10  1  0
 10 11  2  0
 10 12  1  0
 12 13  1  0
 13 14  2  0
 14 15  1  0
 15 16  2  0
 16 17  1  0
 17 18  2  0
  7 19  1  0
 19 20  2  0
 20 21  1  0
 21 22  2  0
 22 23  1  0
 23 24  2  0
 24  4  1  0
 18  9  1  0
 24 19  1  0
 18 13  1  0
  1 25  1  0
  1 26  1  0
  1 27  1  0
  3 28  1  0
  3 29  1  0
  3 30  1  0
  5 31  1  0
  6 32  1  0
  8 33  1  0
 12 34  1  0
 14 35  1  0
 15 36  1  0
 16 37  1  0
 17 38  1  0
 20 39  1  0
 21 40  1  0
 22 41  1  0
 23 42  1  0
M  END
$$$$
