
     RDKit          3D

 42 45  0  0  0  0  0  0  0  0999 V2000
   -9.6270    7.3430  -16.6100 C   0  0  0  0  0  0  0  0  0  0  0  0
  -10.4830    6.1890  -16.8800 N   0  0  0  0  0  0  0  0  0  0  0  0
  -11.1350    6.2130  -18.1940 C   0  0  0  0  0  0  0  0  0  0  0  0
   -9.8620    4.9260  -16.6620 C   0  0  0  0  0  0  0  0  0  0  0  0
   -8.8150    4.4840  -17.4840 C   0  0  0  0  0  0  0  0  0  0  0  0
   -8.2340    3.2330  -17.2940 C   0  0  0  0  0  0  0  0  0  0  0  0
   -8.6950    2.3820  -16.2830 C   0  0  0  0  0  0  0  0  0  0  0  0
   -8.0160    1.0870  -16.1140 C   0  0  0  0  0  0  0  0  0  0  0  0
   -6.9480    0.8560  -15.3360 C   0  0  0  0  0  0  0  0  0  0  0  0
   -6.2030    1.8430  -14.4690 C   0  0  0  0  0  0  0  0  0  0  0  0
   -6.4300    3.0210  -14.2830 O   0  0  0  0  0  0  0  0  0  0  0  0
   -5.1750    1.1050  -13.8970 N   0  0  0  0  0  0  0  0  0  0  0  0
   -5.2060   -0.2220  -14.3120 C   0  0  0  0  0  0  0  0  0  0  0  0
   -4.3360   -1.2260  -13.9390 C   0  0  0  0  0  0  0  0  0  0  0  0
   -4.5530   -2.4950  -14.4790 C   0  0  0  0  0  0  0  0  0  0  0  0
   -5.6200   -2.7260  -15.3660 C   0  0  0  0  0  0  0  0  0  0  0  0
   -6.4910   -1.6920  -15.7310 C   0  0  0  0  0  0  0  0  0  0  0  0
   -6.2690   -0.4370  -15.1930 C   0  0  0  0  0  0  0  0  0  0  0  0
   -9.7550    2.7900  -15.4320 C   0  0  0  0  0  0  0  0  0  0  0  0
  -10.2630    1.9700  -14.3940 C   0  0  0  0  0  0  0  0  0  0  0  0
  -11.2990    2.3900  -13.5600 C   0  0  0  0  0  0  0  0  0  0  0  0
  -11.8580    3.6450  -13.7380 C   0  0  0  0  0  0  0  0  0  0  0  0
  -11.3820    4.4720  -14.7550 C   0  0  0  0  0  0  0  0  0  0  0  0
  -10.3390    4.0730  -15.6230 C   0  0  0  0  0  0  0  0  0  0  0  0
   -9.5264    7.4786  -15.5230 H   0  0  0  0  0  0  0  0  0  0  0  0
   -8.6339    7.1743  -17.0519 H   0  0  0  0  0  0  0  0  0  0  0  0
  -10.0766    8.2444  -17.0519 H   0  0  0  0  0  0  0  0  0  0  0  0
  -12.2262    6.2532  -18.0612 H   0  0  0  0  0  0  0  0  0  0  0  0
  -10.8008    7.0995  -18.7530 H   0  0  0  0  0  0  0  0  0  0  0  0
  -10.8669    5.3044  -18.7530 H   0  0  0  0  0  0  0  0  0  0  0  0
   -8.4475    5.1353  -18.2907 H   0  0  0  0  0  0  0  0  0  0  0  0
   -7.4065    2.9111  -17.9433 H   0  0  0  0  0  0  0  0  0  0  0  0
   -8.4206    0.2323  -16.6759 H   0  0  0  0  0  0  0  0  0  0  0  0
   -4.5070    1.5130  -13.2630 H   0  0  0  0  0  0  0  0  0  0  0  0
   -3.5050   -1.0342  -13.2442 H   0  0  0  0  0  0  0  0  0  0  0  0
   -3.8821   -3.3235  -14.2078 H   0  0  0  0  0  0  0  0  0  0  0  0
   -5.7725   -3.7340  -15.7791 H   0  0  0  0  0  0  0  0  0  0  0  0
   -7.3259   -1.8721  -16.4241 H   0  0  0  0  0  0  0  0  0  0  0  0
   -9.8270    0.9717  -14.2413 H   0  0  0  0  0  0  0  0  0  0  0  0
  -11.6706    1.7276  -12.7643 H   0  0  0  0  0  0  0  0  0  0  0  0
  -12.6718    3.9869  -13.0816 H   0  0  0  0  0  0  0  0  0  0  0  0
  -11.8323    5.4670  -14.8864 H   0  0  0  0  0  0  0  0  0  0  0  0
  1  2  1  0
  2  3  1  0
  2  4  1  0
  4  5  2  0
  5  6  1  0
  6  7  2  0
  7  8  1  0
  8  9  2  0
  9 10  1  0
 10 11  2  0
 10 12  1  0
 12 13  1  0
 13 14  2  0
 14 15  1  0
 15 16  2  0
 16 17  1  0
 17 18  2  0
  7 19  1  0
 19 20  2  0
 20 21  1  0
 21 22  2  0
 22 23  1  0
 23 24  2  0
 24  4  1  0
 18  9  1  0
 24 19  1  0
 18 13  1  0
  1 25  1  0
  1 26  1  0
  1 27  1  0
  3 28  1  0
  3 29  1  0
  3 30  1  0
  5 31  1  0
  6 32  1  0
  8 33  1  0
 12 34  1  0
 14 35  1  0
 15 36  1  0
 16 37  1  0
 17 38  1  0
 20 39  1  0
 21 40  1  0
 22 41  1  0
 23 42  1  0
M  END
>  <meeko>  (1) 
{"is_sidechain": false}

>  <vina_affinity_kcal_mol>  (1) 
-8.755

>  <pose_rank>  (1) 
1

$$$$

     RDKit          3D

 42 45  0  0  0  0  0  0  0  0999 V2000
  -10.5080    6.2750  -19.4430 C   0  0  0  0  0  0  0  0  0  0  0  0
   -9.6210    6.4130  -18.2880 N   0  0  0  0  0  0  0  0  0  0  0  0
   -9.4890    7.7850  -17.7870 C   0  0  0  0  0  0  0  0  0  0  0  0
   -9.9050    5.5220  -17.2130 C   0  0  0  0  0  0  0  0  0  0  0  0
  -10.9440    5.7870  -16.3100 C   0  0  0  0  0  0  0  0  0  0  0  0
  -11.1970    4.9360  -15.2380 C   0  0  0  0  0  0  0  0  0  0  0  0
  -10.4050    3.8010  -15.0320 C   0  0  0  0  0  0  0  0  0  0  0  0
  -10.7460    2.9240  -13.8980 C   0  0  0  0  0  0  0  0  0  0  0  0
  -11.9590    2.7960  -13.3420 C   0  0  0  0  0  0  0  0  0  0  0  0
  -13.2360    3.5020  -13.7310 C   0  0  0  0  0  0  0  0  0  0  0  0
  -13.4270    4.2980  -14.6270 O   0  0  0  0  0  0  0  0  0  0  0  0
  -14.1860    3.0360  -12.8320 N   0  0  0  0  0  0  0  0  0  0  0  0
  -13.6390    2.1210  -11.9380 C   0  0  0  0  0  0  0  0  0  0  0  0
  -14.2970    1.4650  -10.9190 C   0  0  0  0  0  0  0  0  0  0  0  0
  -13.5500    0.5830  -10.1360 C   0  0  0  0  0  0  0  0  0  0  0  0
  -12.1790    0.3810  -10.3890 C   0  0  0  0  0  0  0  0  0  0  0  0
  -11.5320    1.0590  -11.4290 C   0  0  0  0  0  0  0  0  0  0  0  0
  -12.2790    1.9320  -12.2000 C   0  0  0  0  0  0  0  0  0  0  0  0
   -9.3410    3.4980  -15.9210 C   0  0  0  0  0  0  0  0  0  0  0  0
   -8.5070    2.3640  -15.7600 C   0  0  0  0  0  0  0  0  0  0  0  0
   -7.4710    2.0760  -16.6480 C   0  0  0  0  0  0  0  0  0  0  0  0
   -7.2390    2.9130  -17.7270 C   0  0  0  0  0  0  0  0  0  0  0  0
   -8.0410    4.0400  -17.9080 C   0  0  0  0  0  0  0  0  0  0  0  0
   -9.0940    4.3650  -17.0210 C   0  0  0  0  0  0  0  0  0  0  0  0
  -11.5395    6.1145  -19.0961 H   0  0  0  0  0  0  0  0  0  0  0  0
  -10.4638    7.1908  -20.0507 H   0  0  0  0  0  0  0  0  0  0  0  0
  -10.1877    5.4159  -20.0507 H   0  0  0  0  0  0  0  0  0  0  0  0
   -9.4899    7.7754  -16.6870 H   0  0  0  0  0  0  0  0  0  0  0  0
   -8.5450    8.2183  -18.1491 H   0  0  0  0  0  0  0  0  0  0  0  0
  -10.3331    8.3904  -18.1491 H   0  0  0  0  0  0  0  0  0  0  0  0
  -11.5689    6.6812  -16.4508 H   0  0  0  0  0  0  0  0  0  0  0  0
  -12.0249    5.1572  -14.5483 H   0  0  0  0  0  0  0  0  0  0  0  0
   -9.9324    2.3204  -13.4694 H   0  0  0  0  0  0  0  0  0  0  0  0
  -15.1460    3.3420  -12.8540 H   0  0  0  0  0  0  0  0  0  0  0  0
  -15.3681    1.6301  -10.7306 H   0  0  0  0  0  0  0  0  0  0  0  0
  -14.0372    0.0400   -9.3127 H   0  0  0  0  0  0  0  0  0  0  0  0
  -11.6089   -0.3192   -9.7607 H   0  0  0  0  0  0  0  0  0  0  0  0
  -10.4614    0.9023  -11.6274 H   0  0  0  0  0  0  0  0  0  0  0  0
   -8.6821    1.6901  -14.9084 H   0  0  0  0  0  0  0  0  0  0  0  0
   -6.8408    1.1880  -16.4922 H   0  0  0  0  0  0  0  0  0  0  0  0
   -6.4281    2.6906  -18.4362 H   0  0  0  0  0  0  0  0  0  0  0  0
   -7.8483    4.6975  -18.7686 H   0  0  0  0  0  0  0  0  0  0  0  0
  1  2  1  0
  2  3  1  0
  2  4  1  0
  4  5  2  0
  5  6  1  0
  6  7  2  0
  7  8  1  0
  8  9  2  0
  9 10  1  0
 10 11  2  0
 10 12  1  0
 12 13  1  0
 13 14  2  0
 14 15  1  0
 15 16  2  0
 16 17  1  0
 17 18  2  0
  7 19  1  0
 19 20  2  0
 20 21  1  0
 21 22  2  0
 22 23  1  0
 23 24  2  0
 24  4  1  0
 18  9  1  0
 24 19  1  0
 18 13  1  0
  1 25  1  0
  1 26  1  0
  1 27  1  0
  3 28  1  0
  3 29  1  0
  3 30  1  0
  5 31  1  0
  6 32  1  0
  8 33  1  0
 12 34  1  0
 14 35  1  0
 15 36  1  0
 16 37  1  0
 17 38  1  0
 20 39  1  0
 21 40  1  0
 22 41  1  0
 23 42  1  0
M  END
>  <meeko>  (2) 
{"is_sidechain": false}

>  <vina_affinity_kcal_mol>  (2) 
-8.649

>  <pose_rank>  (2) 
2

$$$$

     RDKit          3D

 42 45  0  0  0  0  0  0  0  0999 V2000
   -9.6200    7.7880  -17.8820 C   0  0  0  0  0  0  0  0  0  0  0  0
  -10.0190    6.3960  -18.0940 N   0  0  0  0  0  0  0  0  0  0  0  0
  -10.0730    5.9910  -19.5030 C   0  0  0  0  0  0  0  0  0  0  0  0
   -9.2790    5.4450  -17.3360 C   0  0  0  0  0  0  0  0  0  0  0  0
   -7.9770    5.0800  -17.7060 C   0  0  0  0  0  0  0  0  0  0  0  0
   -7.2680    4.1220  -16.9860 C   0  0  0  0  0  0  0  0  0  0  0  0
   -7.8500    3.4910  -15.8820 C   0  0  0  0  0  0  0  0  0  0  0  0
   -7.0350    2.5110  -15.1440 C   0  0  0  0  0  0  0  0  0  0  0  0
   -7.0010    1.1890  -15.3700 C   0  0  0  0  0  0  0  0  0  0  0  0
   -7.7690    0.4070  -16.4080 C   0  0  0  0  0  0  0  0  0  0  0  0
   -8.5430    0.8100  -17.2520 O   0  0  0  0  0  0  0  0  0  0  0  0
   -7.3920   -0.9150  -16.2050 N   0  0  0  0  0  0  0  0  0  0  0  0
   -6.4780   -1.0310  -15.1630 C   0  0  0  0  0  0  0  0  0  0  0  0
   -5.8980   -2.1930  -14.6970 C   0  0  0  0  0  0  0  0  0  0  0  0
   -5.0000   -2.0800  -13.6340 C   0  0  0  0  0  0  0  0  0  0  0  0
   -4.7080   -0.8240  -13.0700 C   0  0  0  0  0  0  0  0  0  0  0  0
   -5.3080    0.3420  -13.5590 C   0  0  0  0  0  0  0  0  0  0  0  0
   -6.1980    0.2230  -14.6120 C   0  0  0  0  0  0  0  0  0  0  0  0
   -9.1680    3.8280  -15.4760 C   0  0  0  0  0  0  0  0  0  0  0  0
   -9.8070    3.2200  -14.3670 C   0  0  0  0  0  0  0  0  0  0  0  0
  -11.0990    3.5700  -13.9750 C   0  0  0  0  0  0  0  0  0  0  0  0
  -11.7910    4.5420  -14.6800 C   0  0  0  0  0  0  0  0  0  0  0  0
  -11.1880    5.1530  -15.7800 C   0  0  0  0  0  0  0  0  0  0  0  0
   -9.8840    4.8150  -16.2080 C   0  0  0  0  0  0  0  0  0  0  0  0
   -9.5614    7.9923  -16.8027 H   0  0  0  0  0  0  0  0  0  0  0  0
   -8.6360    7.9615  -18.3420 H   0  0  0  0  0  0  0  0  0  0  0  0
  -10.3627    8.4564  -18.3420 H   0  0  0  0  0  0  0  0  0  0  0  0
  -10.2181    4.9025  -19.5663 H   0  0  0  0  0  0  0  0  0  0  0  0
  -10.9109    6.5021  -19.9996 H   0  0  0  0  0  0  0  0  0  0  0  0
   -9.1304    6.2647  -19.9996 H   0  0  0  0  0  0  0  0  0  0  0  0
   -7.5081    5.5579  -18.5788 H   0  0  0  0  0  0  0  0  0  0  0  0
   -6.2432    3.8597  -17.2876 H   0  0  0  0  0  0  0  0  0  0  0  0
   -6.3973    2.8975  -14.3353 H   0  0  0  0  0  0  0  0  0  0  0  0
   -7.7550   -1.6710  -16.7630 H   0  0  0  0  0  0  0  0  0  0  0  0
   -6.1337   -3.1695  -15.1452 H   0  0  0  0  0  0  0  0  0  0  0  0
   -4.5154   -2.9824  -13.2329 H   0  0  0  0  0  0  0  0  0  0  0  0
   -3.9978   -0.7578  -12.2326 H   0  0  0  0  0  0  0  0  0  0  0  0
   -5.0789    1.3240  -13.1194 H   0  0  0  0  0  0  0  0  0  0  0  0
   -9.2677    2.4485  -13.7979 H   0  0  0  0  0  0  0  0  0  0  0  0
  -11.5666    3.0767  -13.1101 H   0  0  0  0  0  0  0  0  0  0  0  0
  -12.8079    4.8296  -14.3747 H   0  0  0  0  0  0  0  0  0  0  0  0
  -11.7460    5.9233  -16.3325 H   0  0  0  0  0  0  0  0  0  0  0  0
  1  2  1  0
  2  3  1  0
  2  4  1  0
  4  5  2  0
  5  6  1  0
  6  7  2  0
  7  8  1  0
  8  9  2  0
  9 10  1  0
 10 11  2  0
 10 12  1  0
 12 13  1  0
 13 14  2  0
 14 15  1  0
 15 16  2  0
 16 17  1  0
 17 18  2  0
  7 19  1  0
 19 20  2  0
 20 21  1  0
 21 22  2  0
 22 23  1  0
 23 24  2  0
 24  4  1  0
 18  9  1  0
 24 19  1  0
 18 13  1  0
  1 25  1  0
  1 26  1  0
  1 27  1  0
  3 28  1  0
  3 29  1  0
  3 30  1  0
  5 31  1  0
  6 32  1  0
  8 33  1  0
 12 34  1  0
 14 35  1  0
 15 36  1  0
 16 37  1  0
 17 38  1  0
 20 39  1  0
 21 40  1  0
 22 41  1  0
 23 42  1  0
M  END
>  <meeko>  (3) 
{"is_sidechain": false}

>  <vina_affinity_kcal_mol>  (3) 
-8.399

>  <pose_rank>  (3) 
3

$$$$

     RDKit          3D

 42 45  0  0  0  0  0  0  0  0999 V2000
  -13.7510    3.3720  -14.0800 C   0  0  0  0  0  0  0  0  0  0  0  0
  -12.6100    3.0330  -13.2300 N   0  0  0  0  0  0  0  0  0  0  0  0
  -12.9530    2.2410  -12.0450 C   0  0  0  0  0  0  0  0  0  0  0  0
  -11.5140    2.4390  -13.9190 C   0  0  0  0  0  0  0  0  0  0  0  0
  -11.0980    1.1320  -13.6250 C   0  0  0  0  0  0  0  0  0  0  0  0
  -10.0030    0.5660  -14.2710 C   0  0  0  0  0  0  0  0  0  0  0  0
   -9.2840    1.2980  -15.2220 C   0  0  0  0  0  0  0  0  0  0  0  0
   -8.1560    0.6290  -15.8940 C   0  0  0  0  0  0  0  0  0  0  0  0
   -6.8570    0.8260  -15.6300 C   0  0  0  0  0  0  0  0  0  0  0  0
   -6.2500    1.7560  -14.6070 C   0  0  0  0  0  0  0  0  0  0  0  0
   -6.8060    2.4860  -13.8120 O   0  0  0  0  0  0  0  0  0  0  0  0
   -4.8780    1.5990  -14.7550 N   0  0  0  0  0  0  0  0  0  0  0  0
   -4.5740    0.6750  -15.7500 C   0  0  0  0  0  0  0  0  0  0  0  0
   -3.3160    0.2790  -16.1550 C   0  0  0  0  0  0  0  0  0  0  0  0
   -3.2410   -0.6680  -17.1780 C   0  0  0  0  0  0  0  0  0  0  0  0
   -4.4100   -1.1900  -17.7630 C   0  0  0  0  0  0  0  0  0  0  0  0
   -5.6770   -0.7740  -17.3350 C   0  0  0  0  0  0  0  0  0  0  0  0
   -5.7440    0.1660  -16.3220 C   0  0  0  0  0  0  0  0  0  0  0  0
   -9.6700    2.6250  -15.5460 C   0  0  0  0  0  0  0  0  0  0  0  0
   -8.9770    3.4130  -16.4990 C   0  0  0  0  0  0  0  0  0  0  0  0
   -9.3750    4.7120  -16.8130 C   0  0  0  0  0  0  0  0  0  0  0  0
  -10.4800    5.2620  -16.1850 C   0  0  0  0  0  0  0  0  0  0  0  0
  -11.1780    4.5120  -15.2380 C   0  0  0  0  0  0  0  0  0  0  0  0
  -10.7950    3.1950  -14.8910 C   0  0  0  0  0  0  0  0  0  0  0  0
  -14.6148    3.6286  -13.4491 H   0  0  0  0  0  0  0  0  0  0  0  0
  -13.4924    4.2321  -14.7151 H   0  0  0  0  0  0  0  0  0  0  0  0
  -14.0040    2.5102  -14.7151 H   0  0  0  0  0  0  0  0  0  0  0  0
  -12.7056    2.8122  -11.1380 H   0  0  0  0  0  0  0  0  0  0  0  0
  -14.0295    2.0152  -12.0539 H   0  0  0  0  0  0  0  0  0  0  0  0
  -12.3812    1.3013  -12.0539 H   0  0  0  0  0  0  0  0  0  0  0  0
  -11.6456    0.5456  -12.8725 H   0  0  0  0  0  0  0  0  0  0  0  0
   -9.7007   -0.4643  -14.0322 H   0  0  0  0  0  0  0  0  0  0  0  0
   -8.4023   -0.0970  -16.6829 H   0  0  0  0  0  0  0  0  0  0  0  0
   -4.2130    2.1060  -14.1940 H   0  0  0  0  0  0  0  0  0  0  0  0
   -2.4087    0.6927  -15.6906 H   0  0  0  0  0  0  0  0  0  0  0  0
   -2.2570   -1.0102  -17.5310 H   0  0  0  0  0  0  0  0  0  0  0  0
   -4.3273   -1.9353  -18.5678 H   0  0  0  0  0  0  0  0  0  0  0  0
   -6.5912   -1.1823  -17.7905 H   0  0  0  0  0  0  0  0  0  0  0  0
   -8.0988    2.9869  -17.0061 H   0  0  0  0  0  0  0  0  0  0  0  0
   -8.8137    5.2973  -17.5562 H   0  0  0  0  0  0  0  0  0  0  0  0
  -10.8053    6.2836  -16.4312 H   0  0  0  0  0  0  0  0  0  0  0  0
  -12.0541    4.9589  -14.7454 H   0  0  0  0  0  0  0  0  0  0  0  0
  1  2  1  0
  2  3  1  0
  2  4  1  0
  4  5  2  0
  5  6  1  0
  6  7  2  0
  7  8  1  0
  8  9  2  0
  9 10  1  0
 10 11  2  0
 10 12  1  0
 12 13  1  0
 13 14  2  0
 14 15  1  0
 15 16  2  0
 16 17  1  0
 17 18  2  0
  7 19  1  0
 19 20  2  0
 20 21  1  0
 21 22  2  0
 22 23  1  0
 23 24  2  0
 24  4  1  0
 18  9  1  0
 24 19  1  0
 18 13  1  0
  1 25  1  0
  1 26  1  0
  1 27  1  0
  3 28  1  0
  3 29  1  0
  3 30  1  0
  5 31  1  0
  6 32  1  0
  8 33  1  0
 12 34  1  0
 14 35  1  0
 15 36  1  0
 16 37  1  0
 17 38  1  0
 20 39  1  0
 21 40  1  0
 22 41  1  0
 23 42  1  0
M  END
>  <meeko>  (4) 
{"is_sidechain": false}

>  <vina_affinity_kcal_mol>  (4) 
-8.104

>  <pose_rank>  (4) 
4

$$$$

     RDKit          3D

 42 45  0  0  0  0  0  0  0  0999 V2000
  -13.8760   -0.6410   -9.7960 C   0  0  0  0  0  0  0  0  0  0  0  0
  -12.8260    0.3770   -9.8050 N   0  0  0  0  0  0  0  0  0  0  0  0
  -11.9320    0.3340   -8.6430 C   0  0  0  0  0  0  0  0  0  0  0  0
  -12.0680    0.4360  -11.0080 C   0  0  0  0  0  0  0  0  0  0  0  0
  -10.9910   -0.4350  -11.2280 C   0  0  0  0  0  0  0  0  0  0  0  0
  -10.2270   -0.3520  -12.3890 C   0  0  0  0  0  0  0  0  0  0  0  0
  -10.5100    0.6170  -13.3570 C   0  0  0  0  0  0  0  0  0  0  0  0
   -9.6850    0.6300  -14.5770 C   0  0  0  0  0  0  0  0  0  0  0  0
   -8.6530    1.4530  -14.8180 C   0  0  0  0  0  0  0  0  0  0  0  0
   -8.1030    2.5350  -13.9210 C   0  0  0  0  0  0  0  0  0  0  0  0
   -8.4610    2.8610  -12.8070 O   0  0  0  0  0  0  0  0  0  0  0  0
   -7.0610    3.1000  -14.6460 N   0  0  0  0  0  0  0  0  0  0  0  0
   -6.9070    2.4830  -15.8840 C   0  0  0  0  0  0  0  0  0  0  0  0
   -5.9730    2.7920  -16.8500 C   0  0  0  0  0  0  0  0  0  0  0  0
   -5.9970    2.0400  -18.0270 C   0  0  0  0  0  0  0  0  0  0  0  0
   -6.9420    1.0120  -18.2050 C   0  0  0  0  0  0  0  0  0  0  0  0
   -7.8810    0.7170  -17.2100 C   0  0  0  0  0  0  0  0  0  0  0  0
   -7.8520    1.4660  -16.0470 C   0  0  0  0  0  0  0  0  0  0  0  0
  -11.5900    1.5200  -13.1720 C   0  0  0  0  0  0  0  0  0  0  0  0
  -11.9210    2.5220  -14.1180 C   0  0  0  0  0  0  0  0  0  0  0  0
  -12.9910    3.3960  -13.9260 C   0  0  0  0  0  0  0  0  0  0  0  0
  -13.7640    3.2930  -12.7800 C   0  0  0  0  0  0  0  0  0  0  0  0
  -13.4570    2.3200  -11.8290 C   0  0  0  0  0  0  0  0  0  0  0  0
  -12.3740    1.4240  -11.9900 C   0  0  0  0  0  0  0  0  0  0  0  0
  -14.1347   -0.8918   -8.7567 H   0  0  0  0  0  0  0  0  0  0  0  0
  -14.7667   -0.2536  -10.3123 H   0  0  0  0  0  0  0  0  0  0  0  0
  -13.5164   -1.5433  -10.3123 H   0  0  0  0  0  0  0  0  0  0  0  0
  -12.5292    0.3627   -7.7197 H   0  0  0  0  0  0  0  0  0  0  0  0
  -11.3413   -0.5936   -8.6689 H   0  0  0  0  0  0  0  0  0  0  0  0
  -11.2550    1.2006   -8.6689 H   0  0  0  0  0  0  0  0  0  0  0  0
  -10.7461   -1.1953  -10.4717 H   0  0  0  0  0  0  0  0  0  0  0  0
   -9.3946   -1.0538  -12.5461 H   0  0  0  0  0  0  0  0  0  0  0  0
   -9.9373   -0.0999  -15.3603 H   0  0  0  0  0  0  0  0  0  0  0  0
   -6.5050    3.8590  -14.2880 H   0  0  0  0  0  0  0  0  0  0  0  0
   -5.2391    3.5976  -16.7000 H   0  0  0  0  0  0  0  0  0  0  0  0
   -5.2692    2.2536  -18.8237 H   0  0  0  0  0  0  0  0  0  0  0  0
   -6.9425    0.4321  -19.1397 H   0  0  0  0  0  0  0  0  0  0  0  0
   -8.6198   -0.0861  -17.3484 H   0  0  0  0  0  0  0  0  0  0  0  0
  -11.3155    2.6133  -15.0318 H   0  0  0  0  0  0  0  0  0  0  0  0
  -13.2203    4.1632  -14.6803 H   0  0  0  0  0  0  0  0  0  0  0  0
  -14.6134    3.9737  -12.6217 H   0  0  0  0  0  0  0  0  0  0  0  0
  -14.0776    2.2468  -10.9237 H   0  0  0  0  0  0  0  0  0  0  0  0
  1  2  1  0
  2  3  1  0
  2  4  1  0
  4  5  2  0
  5  6  1  0
  6  7  2  0
  7  8  1  0
  8  9  2  0
  9 10  1  0
 10 11  2  0
 10 12  1  0
 12 13  1  0
 13 14  2  0
 14 15  1  0
 15 16  2  0
 16 17  1  0
 17 18  2  0
  7 19  1  0
 19 20  2  0
 20 21  1  0
 21 22  2  0
 22 23  1  0
 23 24  2  0
 24  4  1  0
 18  9  1  0
 24 19  1  0
 18 13  1  0
  1 25  1  0
  1 26  1  0
  1 27  1  0
  3 28  1  0
  3 29  1  0
  3 30  1  0
  5 31  1  0
  6 32  1  0
  8 33  1  0
 12 34  1  0
 14 35  1  0
 15 36  1  0
 16 37  1  0
 17 38  1  0
 20 39  1  0
 21 40  1  0
 22 41  1  0
 23 42  1  0
M  END
>  <meeko>  (5) 
{"is_sidechain": false}

>  <vina_affinity_kcal_mol>  (5) 
-7.97

>  <pose_rank>  (5) 
5

$$$$

     RDKit          3D

 42 45  0  0  0  0  0  0  0  0999 V2000
  -10.0110    7.3530  -16.7670 C   0  0  0  0  0  0  0  0  0  0  0  0
  -10.2110    5.9570  -17.1530 N   0  0  0  0  0  0  0  0  0  0  0  0
  -10.7560    5.7750  -18.5030 C   0  0  0  0  0  0  0  0  0  0  0  0
   -9.0740    5.1200  -16.9650 C   0  0  0  0  0  0  0  0  0  0  0  0
   -7.9480    5.2340  -17.7920 C   0  0  0  0  0  0  0  0  0  0  0  0
   -6.8520    4.3900  -17.6310 C   0  0  0  0  0  0  0  0  0  0  0  0
   -6.8590    3.3980  -16.6450 C   0  0  0  0  0  0  0  0  0  0  0  0
   -5.6560    2.5610  -16.5050 C   0  0  0  0  0  0  0  0  0  0  0  0
   -5.5210    1.3010  -16.9430 C   0  0  0  0  0  0  0  0  0  0  0  0
   -6.5430    0.4570  -17.6650 C   0  0  0  0  0  0  0  0  0  0  0  0
   -7.6690    0.7500  -18.0130 O   0  0  0  0  0  0  0  0  0  0  0  0
   -5.9140   -0.7640  -17.8690 N   0  0  0  0  0  0  0  0  0  0  0  0
   -4.6200   -0.7640  -17.3570 C   0  0  0  0  0  0  0  0  0  0  0  0
   -3.7180   -1.8070  -17.3890 C   0  0  0  0  0  0  0  0  0  0  0  0
   -2.4650   -1.5890  -16.8120 C   0  0  0  0  0  0  0  0  0  0  0  0
   -2.1500   -0.3490  -16.2270 C   0  0  0  0  0  0  0  0  0  0  0  0
   -3.0810    0.6960  -16.2060 C   0  0  0  0  0  0  0  0  0  0  0  0
   -4.3210    0.4720  -16.7780 C   0  0  0  0  0  0  0  0  0  0  0  0
   -7.9810    3.2480  -15.7880 C   0  0  0  0  0  0  0  0  0  0  0  0
   -8.0440    2.2600  -14.7740 C   0  0  0  0  0  0  0  0  0  0  0  0
   -9.1500    2.1310  -13.9340 C   0  0  0  0  0  0  0  0  0  0  0  0
  -10.2280    2.9890  -14.0830 C   0  0  0  0  0  0  0  0  0  0  0  0
  -10.1960    3.9670  -15.0770 C   0  0  0  0  0  0  0  0  0  0  0  0
   -9.0940    4.1190  -15.9490 C   0  0  0  0  0  0  0  0  0  0  0  0
   -9.9997    7.4321  -15.6699 H   0  0  0  0  0  0  0  0  0  0  0  0
   -9.0524    7.7112  -17.1703 H   0  0  0  0  0  0  0  0  0  0  0  0
  -10.8305    7.9660  -17.1703 H   0  0  0  0  0  0  0  0  0  0  0  0
  -11.7973    5.4273  -18.4342 H   0  0  0  0  0  0  0  0  0  0  0  0
  -10.7241    6.7325  -19.0435 H   0  0  0  0  0  0  0  0  0  0  0  0
  -10.1552    5.0287  -19.0435 H   0  0  0  0  0  0  0  0  0  0  0  0
   -7.9298    6.0015  -18.5798 H   0  0  0  0  0  0  0  0  0  0  0  0
   -5.9743    4.5044  -18.2841 H   0  0  0  0  0  0  0  0  0  0  0  0
   -4.7904    3.0095  -15.9954 H   0  0  0  0  0  0  0  0  0  0  0  0
   -6.3670   -1.5340  -18.3360 H   0  0  0  0  0  0  0  0  0  0  0  0
   -3.9752   -2.7718  -17.8505 H   0  0  0  0  0  0  0  0  0  0  0  0
   -1.7167   -2.3952  -16.8150 H   0  0  0  0  0  0  0  0  0  0  0  0
   -1.1567   -0.1983  -15.7791 H   0  0  0  0  0  0  0  0  0  0  0  0
   -2.8345    1.6656  -15.7488 H   0  0  0  0  0  0  0  0  0  0  0  0
   -7.1942    1.5735  -14.6454 H   0  0  0  0  0  0  0  0  0  0  0  0
   -9.1665    1.3522  -13.1573 H   0  0  0  0  0  0  0  0  0  0  0  0
  -11.1027    2.8994  -13.4221 H   0  0  0  0  0  0  0  0  0  0  0  0
  -11.0572    4.6426  -15.1859 H   0  0  0  0  0  0  0  0  0  0  0  0
  1  2  1  0
  2  3  1  0
  2  4  1  0
  4  5  2  0
  5  6  1  0
  6  7  2  0
  7  8  1  0
  8  9  2  0
  9 10  1  0
 10 11  2  0
 10 12  1  0
 12 13  1  0
 13 14  2  0
 14 15  1  0
 15 16  2  0
 16 17  1  0
 17 18  2  0
  7 19  1  0
 19 20  2  0
 20 21  1  0
 21 22  2  0
 22 23  1  0
 23 24  2  0
 24  4  1  0
 18  9  1  0
 24 19  1  0
 18 13  1  0
  1 25  1  0
  1 26  1  0
  1 27  1  0
  3 28  1  0
  3 29  1  0
  3 30  1  0
  5 31  1  0
  6 32  1  0
  8 33  1  0
 12 34  1  0
 14 35  1  0
 15 36  1  0
 16 37  1  0
 17 38  1  0
 20 39  1  0
 21 40  1  0
 22 41  1  0
 23 42  1  0
M  END
>  <meeko>  (6) 
{"is_sidechain": false}

>  <vina_affinity_kcal_mol>  (6) 
-7.675

>  <pose_rank>  (6) 
6

$$$$

     RDKit          3D

 42 45  0  0  0  0  0  0  0  0999 V2000
  -13.1760   -2.8840   -5.0680 C   0  0  0  0  0  0  0  0  0  0  0  0
  -14.0560   -2.6720   -6.2180 N   0  0  0  0  0  0  0  0  0  0  0  0
  -15.3610   -2.0930   -5.8810 C   0  0  0  0  0  0  0  0  0  0  0  0
  -13.4620   -1.9550   -7.2950 C   0  0  0  0  0  0  0  0  0  0  0  0
  -13.1670   -0.5890   -7.1790 C   0  0  0  0  0  0  0  0  0  0  0  0
  -12.6210    0.1200   -8.2450 C   0  0  0  0  0  0  0  0  0  0  0  0
  -12.3690   -0.5170   -9.4650 C   0  0  0  0  0  0  0  0  0  0  0  0
  -11.7600    0.2820  -10.5420 C   0  0  0  0  0  0  0  0  0  0  0  0
  -12.3950    1.1810  -11.3080 C   0  0  0  0  0  0  0  0  0  0  0  0
  -13.8490    1.5830  -11.2520 C   0  0  0  0  0  0  0  0  0  0  0  0
  -14.7200    1.1970  -10.4990 O   0  0  0  0  0  0  0  0  0  0  0  0
  -13.9950    2.5240  -12.2630 N   0  0  0  0  0  0  0  0  0  0  0  0
  -12.7950    2.7470  -12.9310 C   0  0  0  0  0  0  0  0  0  0  0  0
  -12.5830    3.6150  -13.9820 C   0  0  0  0  0  0  0  0  0  0  0  0
  -11.2900    3.6830  -14.5060 C   0  0  0  0  0  0  0  0  0  0  0  0
  -10.2560    2.8920  -13.9720 C   0  0  0  0  0  0  0  0  0  0  0  0
  -10.4940    2.0190  -12.9040 C   0  0  0  0  0  0  0  0  0  0  0  0
  -11.7780    1.9550  -12.3910 C   0  0  0  0  0  0  0  0  0  0  0  0
  -12.6560   -1.8980   -9.6260 C   0  0  0  0  0  0  0  0  0  0  0  0
  -12.4230   -2.5930  -10.8380 C   0  0  0  0  0  0  0  0  0  0  0  0
  -12.7030   -3.9520  -10.9770 C   0  0  0  0  0  0  0  0  0  0  0  0
  -13.2230   -4.6580   -9.9050 C   0  0  0  0  0  0  0  0  0  0  0  0
  -13.4690   -3.9980   -8.7000 C   0  0  0  0  0  0  0  0  0  0  0  0
  -13.2040   -2.6200   -8.5300 C   0  0  0  0  0  0  0  0  0  0  0  0
  -13.7478   -2.7463   -4.1384 H   0  0  0  0  0  0  0  0  0  0  0  0
  -12.7697   -3.9057   -5.1006 H   0  0  0  0  0  0  0  0  0  0  0  0
  -12.3490   -2.1594   -5.1006 H   0  0  0  0  0  0  0  0  0  0  0  0
  -15.4694   -2.0449   -4.7874 H   0  0  0  0  0  0  0  0  0  0  0  0
  -15.4318   -1.0790   -6.3014 H   0  0  0  0  0  0  0  0  0  0  0  0
  -16.1603   -2.7209   -6.3014 H   0  0  0  0  0  0  0  0  0  0  0  0
  -13.3703   -0.0698   -6.2308 H   0  0  0  0  0  0  0  0  0  0  0  0
  -12.3860    1.1882   -8.1276 H   0  0  0  0  0  0  0  0  0  0  0  0
  -10.6882    0.1274  -10.7353 H   0  0  0  0  0  0  0  0  0  0  0  0
  -14.8760    2.9700  -12.4610 H   0  0  0  0  0  0  0  0  0  0  0  0
  -13.3992    4.2288  -14.3909 H   0  0  0  0  0  0  0  0  0  0  0  0
  -11.0778    4.3621  -15.3450 H   0  0  0  0  0  0  0  0  0  0  0  0
   -9.2452    2.9607  -14.4004 H   0  0  0  0  0  0  0  0  0  0  0  0
   -9.6851    1.4025  -12.4851 H   0  0  0  0  0  0  0  0  0  0  0  0
  -12.0084   -2.0437  -11.6961 H   0  0  0  0  0  0  0  0  0  0  0  0
  -12.5118   -4.4607  -11.9334 H   0  0  0  0  0  0  0  0  0  0  0  0
  -13.4407   -5.7318  -10.0026 H   0  0  0  0  0  0  0  0  0  0  0  0
  -13.8824   -4.5686   -7.8554 H   0  0  0  0  0  0  0  0  0  0  0  0
  1  2  1  0
  2  3  1  0
  2  4  1  0
  4  5  2  0
  5  6  1  0
  6  7  2  0
  7  8  1  0
  8  9  2  0
  9 10  1  0
 10 11  2  0
 10 12  1  0
 12 13  1  0
 13 14  2  0
 14 15  1  0
 15 16  2  0
 16 17  1  0
 17 18  2  0
  7 19  1  0
 19 20  2  0
 20 21  1  0
 21 22  2  0
 22 23  1  0
 23 24  2  0
 24  4  1  0
 18  9  1  0
 24 19  1  0
 18 13  1  0
  1 25  1  0
  1 26  1  0
  1 27  1  0
  3 28  1  0
  3 29  1  0
  3 30  1  0
  5 31  1  0
  6 32  1  0
  8 33  1  0
 12 34  1  0
 14 35  1  0
 15 36  1  0
 16 37  1  0
 17 38  1  0
 20 39  1  0
 21 40  1  0
 22 41  1  0
 23 42  1  0
M  END
>  <meeko>  (7) 
{"is_sidechain": false}

>  <vina_affinity_kcal_mol>  (7) 
-7.583

>  <pose_rank>  (7) 
7

$$$$

     RDKit          3D

 42 45  0  0  0  0  0  0  0  0999 V2000
  -16.1710   -2.8190   -6.7650 C   0  0  0  0  0  0  0  0  0  0  0  0
  -14.7140   -2.9100   -6.6780 N   0  0  0  0  0  0  0  0  0  0  0  0
  -14.1940   -4.2810   -6.6600 C   0  0  0  0  0  0  0  0  0  0  0  0
  -14.0130   -2.1310   -7.6430 C   0  0  0  0  0  0  0  0  0  0  0  0
  -14.1090   -2.4170   -9.0120 C   0  0  0  0  0  0  0  0  0  0  0  0
  -13.3940   -1.6790   -9.9510 C   0  0  0  0  0  0  0  0  0  0  0  0
  -12.5500   -0.6410   -9.5430 C   0  0  0  0  0  0  0  0  0  0  0  0
  -11.8470    0.1230  -10.5880 C   0  0  0  0  0  0  0  0  0  0  0  0
  -12.3730    1.1120  -11.3250 C   0  0  0  0  0  0  0  0  0  0  0  0
  -13.7750    1.6680  -11.2640 C   0  0  0  0  0  0  0  0  0  0  0  0
  -14.6910    1.3540  -10.5300 O   0  0  0  0  0  0  0  0  0  0  0  0
  -13.8090    2.6530  -12.2420 N   0  0  0  0  0  0  0  0  0  0  0  0
  -12.5860    2.7670  -12.8950 C   0  0  0  0  0  0  0  0  0  0  0  0
  -12.2710    3.6410  -13.9140 C   0  0  0  0  0  0  0  0  0  0  0  0
  -10.9730    3.5850  -14.4280 C   0  0  0  0  0  0  0  0  0  0  0  0
  -10.0360    2.6690  -13.9160 C   0  0  0  0  0  0  0  0  0  0  0  0
  -10.3780    1.7910  -12.8810 C   0  0  0  0  0  0  0  0  0  0  0  0
  -11.6660    1.8510  -12.3780 C   0  0  0  0  0  0  0  0  0  0  0  0
  -12.4210   -0.3210   -8.1660 C   0  0  0  0  0  0  0  0  0  0  0  0
  -11.5800    0.7190   -7.6960 C   0  0  0  0  0  0  0  0  0  0  0  0
  -11.4720    1.0270   -6.3400 C   0  0  0  0  0  0  0  0  0  0  0  0
  -12.2050    0.3050   -5.4120 C   0  0  0  0  0  0  0  0  0  0  0  0
  -13.0370   -0.7280   -5.8450 C   0  0  0  0  0  0  0  0  0  0  0  0
  -13.1620   -1.0710   -7.2120 C   0  0  0  0  0  0  0  0  0  0  0  0
  -16.5979   -2.7923   -5.7516 H   0  0  0  0  0  0  0  0  0  0  0  0
  -16.4495   -1.9017   -7.3044 H   0  0  0  0  0  0  0  0  0  0  0  0
  -16.5615   -3.6945   -7.3044 H   0  0  0  0  0  0  0  0  0  0  0  0
  -14.0685   -4.6119   -5.6185 H   0  0  0  0  0  0  0  0  0  0  0  0
  -14.9015   -4.9483   -7.1740 H   0  0  0  0  0  0  0  0  0  0  0  0
  -13.2219   -4.3113   -7.1740 H   0  0  0  0  0  0  0  0  0  0  0  0
  -14.7595   -3.2374   -9.3494 H   0  0  0  0  0  0  0  0  0  0  0  0
  -13.4934   -1.9137  -11.0211 H   0  0  0  0  0  0  0  0  0  0  0  0
  -10.7968   -0.1414  -10.7810 H   0  0  0  0  0  0  0  0  0  0  0  0
  -14.6340    3.2000  -12.4290 H   0  0  0  0  0  0  0  0  0  0  0  0
  -13.0116    4.3534  -14.3063 H   0  0  0  0  0  0  0  0  0  0  0  0
  -10.6805    4.2646  -15.2420 H   0  0  0  0  0  0  0  0  0  0  0  0
   -9.0194    2.6424  -14.3353 H   0  0  0  0  0  0  0  0  0  0  0  0
   -9.6455    1.0752  -12.4796 H   0  0  0  0  0  0  0  0  0  0  0  0
  -10.9946    1.3009   -8.4231 H   0  0  0  0  0  0  0  0  0  0  0  0
  -10.8081    1.8392   -6.0089 H   0  0  0  0  0  0  0  0  0  0  0  0
  -12.1315    0.5446   -4.3409 H   0  0  0  0  0  0  0  0  0  0  0  0
  -13.6145   -1.2941   -5.0994 H   0  0  0  0  0  0  0  0  0  0  0  0
  1  2  1  0
  2  3  1  0
  2  4  1  0
  4  5  2  0
  5  6  1  0
  6  7  2  0
  7  8  1  0
  8  9  2  0
  9 10  1  0
 10 11  2  0
 10 12  1  0
 12 13  1  0
 13 14  2  0
 14 15  1  0
 15 16  2  0
 16 17  1  0
 17 18  2  0
  7 19  1  0
 19 20  2  0
 20 21  1  0
 21 22  2  0
 22 23  1  0
 23 24  2  0
 24  4  1  0
 18  9  1  0
 24 19  1  0
 18 13  1  0
  1 25  1  0
  1 26  1  0
  1 27  1  0
  3 28  1  0
  3 29  1  0
  3 30  1  0
  5 31  1  0
  6 32  1  0
  8 33  1  0
 12 34  1  0
 14 35  1  0
 15 36  1  0
 16 37  1  0
 17 38  1  0
 20 39  1  0
 21 40  1  0
 22 41  1  0
 23 42  1  0
M  END
>  <meeko>  (8) 
{"is_sidechain": false}

>  <vina_affinity_kcal_mol>  (8) 
-7.582

>  <pose_rank>  (8) 
8

$$$$

     RDKit          3D

 42 45  0  0  0  0  0  0  0  0999 V2000
   -5.8880    3.5910  -16.9950 C   0  0  0  0  0  0  0  0  0  0  0  0
   -7.1260    3.0380  -17.5460 N   0  0  0  0  0  0  0  0  0  0  0  0
   -6.9510    1.7830  -18.2860 C   0  0  0  0  0  0  0  0  0  0  0  0
   -8.1880    2.9100  -16.6060 C   0  0  0  0  0  0  0  0  0  0  0  0
   -8.3450    1.7430  -15.8450 C   0  0  0  0  0  0  0  0  0  0  0  0
   -9.4060    1.6050  -14.9540 C   0  0  0  0  0  0  0  0  0  0  0  0
  -10.3490    2.6280  -14.8100 C   0  0  0  0  0  0  0  0  0  0  0  0
  -11.4270    2.4330  -13.8260 C   0  0  0  0  0  0  0  0  0  0  0  0
  -11.3930    1.5950  -12.7790 C   0  0  0  0  0  0  0  0  0  0  0  0
  -10.2700    0.6740  -12.3660 C   0  0  0  0  0  0  0  0  0  0  0  0
   -9.1780    0.5240  -12.8750 O   0  0  0  0  0  0  0  0  0  0  0  0
  -10.7490    0.0160  -11.2410 N   0  0  0  0  0  0  0  0  0  0  0  0
  -12.0360    0.4310  -10.9140 C   0  0  0  0  0  0  0  0  0  0  0  0
  -12.8060   -0.0150   -9.8600 C   0  0  0  0  0  0  0  0  0  0  0  0
  -14.0790    0.5410   -9.7160 C   0  0  0  0  0  0  0  0  0  0  0  0
  -14.5430    1.5170  -10.6190 C   0  0  0  0  0  0  0  0  0  0  0  0
  -13.7440    1.9540  -11.6820 C   0  0  0  0  0  0  0  0  0  0  0  0
  -12.4840    1.3980  -11.8190 C   0  0  0  0  0  0  0  0  0  0  0  0
  -10.2280    3.8250  -15.5630 C   0  0  0  0  0  0  0  0  0  0  0  0
  -11.1540    4.8930  -15.4590 C   0  0  0  0  0  0  0  0  0  0  0  0
  -11.0160    6.0660  -16.1990 C   0  0  0  0  0  0  0  0  0  0  0  0
   -9.9450    6.2080  -17.0670 C   0  0  0  0  0  0  0  0  0  0  0  0
   -9.0210    5.1710  -17.1940 C   0  0  0  0  0  0  0  0  0  0  0  0
   -9.1370    3.9660  -16.4640 C   0  0  0  0  0  0  0  0  0  0  0  0
   -5.9343    3.5703  -15.8962 H   0  0  0  0  0  0  0  0  0  0  0  0
   -5.0333    2.9891  -17.3374 H   0  0  0  0  0  0  0  0  0  0  0  0
   -5.7659    4.6292  -17.3374 H   0  0  0  0  0  0  0  0  0  0  0  0
   -6.8350    0.9514  -17.5753 H   0  0  0  0  0  0  0  0  0  0  0  0
   -7.8329    1.6044  -18.9187 H   0  0  0  0  0  0  0  0  0  0  0  0
   -6.0538    1.8524  -18.9187 H   0  0  0  0  0  0  0  0  0  0  0  0
   -7.6189    0.9239  -15.9535 H   0  0  0  0  0  0  0  0  0  0  0  0
   -9.5033    0.6849  -14.3591 H   0  0  0  0  0  0  0  0  0  0  0  0
  -12.3423    3.0279  -13.9616 H   0  0  0  0  0  0  0  0  0  0  0  0
  -10.2030   -0.6710  -10.7460 H   0  0  0  0  0  0  0  0  0  0  0  0
  -12.4324   -0.7779   -9.1611 H   0  0  0  0  0  0  0  0  0  0  0  0
  -14.7258    0.2133   -8.8888 H   0  0  0  0  0  0  0  0  0  0  0  0
  -15.5488    1.9425  -10.4869 H   0  0  0  0  0  0  0  0  0  0  0  0
  -14.1066    2.7163  -12.3872 H   0  0  0  0  0  0  0  0  0  0  0  0
  -12.0080    4.7930  -14.7730 H   0  0  0  0  0  0  0  0  0  0  0  0
  -11.7537    6.8753  -16.0946 H   0  0  0  0  0  0  0  0  0  0  0  0
   -9.8245    7.1320  -17.6516 H   0  0  0  0  0  0  0  0  0  0  0  0
   -8.1741    5.2949  -17.8850 H   0  0  0  0  0  0  0  0  0  0  0  0
  1  2  1  0
  2  3  1  0
  2  4  1  0
  4  5  2  0
  5  6  1  0
  6  7  2  0
  7  8  1  0
  8  9  2  0
  9 10  1  0
 10 11  2  0
 10 12  1  0
 12 13  1  0
 13 14  2  0
 14 15  1  0
 15 16  2  0
 16 17  1  0
 17 18  2  0
  7 19  1  0
 19 20  2  0
 20 21  1  0
 21 22  2  0
 22 23  1  0
 23 24  2  0
 24  4  1  0
 18  9  1  0
 24 19  1  0
 18 13  1  0
  1 25  1  0
  1 26  1  0
  1 27  1  0
  3 28  1  0
  3 29  1  0
  3 30  1  0
  5 31  1  0
  6 32  1  0
  8 33  1  0
 12 34  1  0
 14 35  1  0
 15 36  1  0
 16 37  1  0
 17 38  1  0
 20 39  1  0
 21 40  1  0
 22 41  1  0
 23 42  1  0
M  END
>  <meeko>  (9) 
{"is_sidechain": false}

>  <vina_affinity_kcal_mol>  (9) 
-7.568

>  <pose_rank>  (9) 
9

$$$$

     RDKit          3D

 42 45  0  0  0  0  0  0  0  0999 V2000
   -7.7270    2.5160  -14.8220 C   0  0  0  0  0  0  0  0  0  0  0  0
   -8.8500    1.6300  -15.1250 N   0  0  0  0  0  0  0  0  0  0  0  0
   -8.5260    0.5360  -16.0480 C   0  0  0  0  0  0  0  0  0  0  0  0
   -9.5310    1.1230  -13.9820 C   0  0  0  0  0  0  0  0  0  0  0  0
   -9.0270    0.0280  -13.2660 C   0  0  0  0  0  0  0  0  0  0  0  0
   -9.7130   -0.4910  -12.1710 C   0  0  0  0  0  0  0  0  0  0  0  0
  -10.9320    0.0650  -11.7700 C   0  0  0  0  0  0  0  0  0  0  0  0
  -11.5900   -0.5080  -10.5830 C   0  0  0  0  0  0  0  0  0  0  0  0
  -11.8990   -1.8010  -10.4050 C   0  0  0  0  0  0  0  0  0  0  0  0
  -11.6540   -2.9510  -11.3520 C   0  0  0  0  0  0  0  0  0  0  0  0
  -11.1150   -2.9440  -12.4400 O   0  0  0  0  0  0  0  0  0  0  0  0
  -12.1790   -4.0610  -10.7040 N   0  0  0  0  0  0  0  0  0  0  0  0
  -12.7150   -3.7240   -9.4650 C   0  0  0  0  0  0  0  0  0  0  0  0
  -13.3140   -4.5780   -8.5620 C   0  0  0  0  0  0  0  0  0  0  0  0
  -13.7850   -4.0230   -7.3710 C   0  0  0  0  0  0  0  0  0  0  0  0
  -13.6480   -2.6460   -7.1150 C   0  0  0  0  0  0  0  0  0  0  0  0
  -13.0370   -1.7980   -8.0460 C   0  0  0  0  0  0  0  0  0  0  0  0
  -12.5730   -2.3540   -9.2250 C   0  0  0  0  0  0  0  0  0  0  0  0
  -11.4790    1.1730  -12.4690 C   0  0  0  0  0  0  0  0  0  0  0  0
  -12.7100    1.7750  -12.1080 C   0  0  0  0  0  0  0  0  0  0  0  0
  -13.2300    2.8690  -12.8000 C   0  0  0  0  0  0  0  0  0  0  0  0
  -12.5310    3.3960  -13.8740 C   0  0  0  0  0  0  0  0  0  0  0  0
  -11.3190    2.8200  -14.2560 C   0  0  0  0  0  0  0  0  0  0  0  0
  -10.7700    1.7060  -13.5800 C   0  0  0  0  0  0  0  0  0  0  0  0
   -7.6141    2.6051  -13.7314 H   0  0  0  0  0  0  0  0  0  0  0  0
   -6.8047    2.0996  -15.2533 H   0  0  0  0  0  0  0  0  0  0  0  0
   -7.9173    3.5099  -15.2533 H   0  0  0  0  0  0  0  0  0  0  0  0
   -8.2598   -0.3627  -15.4723 H   0  0  0  0  0  0  0  0  0  0  0  0
   -9.3988    0.3203  -16.6818 H   0  0  0  0  0  0  0  0  0  0  0  0
   -7.6765    0.8304  -16.6818 H   0  0  0  0  0  0  0  0  0  0  0  0
   -8.0747   -0.4283  -13.5741 H   0  0  0  0  0  0  0  0  0  0  0  0
   -9.2933   -1.3440  -11.6177 H   0  0  0  0  0  0  0  0  0  0  0  0
  -11.8511    0.1861   -9.7706 H   0  0  0  0  0  0  0  0  0  0  0  0
  -12.1560   -4.9830  -11.1090 H   0  0  0  0  0  0  0  0  0  0  0  0
  -13.4163   -5.6529   -8.7722 H   0  0  0  0  0  0  0  0  0  0  0  0
  -14.2688   -4.6694   -6.6239 H   0  0  0  0  0  0  0  0  0  0  0  0
  -14.0265   -2.2301   -6.1696 H   0  0  0  0  0  0  0  0  0  0  0  0
  -12.9289   -0.7217   -7.8463 H   0  0  0  0  0  0  0  0  0  0  0  0
  -13.2730    1.3670  -11.2556 H   0  0  0  0  0  0  0  0  0  0  0  0
  -14.1899    3.3109  -12.4946 H   0  0  0  0  0  0  0  0  0  0  0  0
  -12.9290    4.2628  -14.4219 H   0  0  0  0  0  0  0  0  0  0  0  0
  -10.7730    3.2462  -15.1105 H   0  0  0  0  0  0  0  0  0  0  0  0
  1  2  1  0
  2  3  1  0
  2  4  1  0
  4  5  2  0
  5  6  1  0
  6  7  2  0
  7  8  1  0
  8  9  2  0
  9 10  1  0
 10 11  2  0
 10 12  1  0
 12 13  1  0
 13 14  2  0
 14 15  1  0
 15 16  2  0
 16 17  1  0
 17 18  2  0
  7 19  1  0
 19 20  2  0
 20 21  1  0
 21 22  2  0
 22 23  1  0
 23 24  2  0
 24  4  1  0
 18  9  1  0
 24 19  1  0
 18 13  1  0
  1 25  1  0
  1 26  1  0
  1 27  1  0
  3 28  1  0
  3 29  1  0
  3 30  1  0
  5 31  1  0
  6 32  1  0
  8 33  1  0
 12 34  1  0
 14 35  1  0
 15 36  1  0
 16 37  1  0
 17 38  1  0
 20 39  1  0
 21 40  1  0
 22 41  1  0
 23 42  1  0
M  END
>  <meeko>  (10) 
{"is_sidechain": false}

>  <vina_affinity_kcal_mol>  (10) 
-6.966

>  <pose_rank>  (10) 
10

$$$$
