
     RDKit          3D

 56 58  0  0  0  0  0  0  0  0999 V2000
   -7.2204   -2.5003   -0.8294 C   0  0  0  0  0  0  0  0  0  0  0  0
   -5.8104   -1.9257   -0.9222 C   0  0  0  0  0  0  0  0  0  0  0  0
   -5.5000   -0.9256    0.1146 N   0  0  0  0  0  0  0  0  0  0  0  0
   -6.3963    0.2395    0.1114 C   0  0  0  0  0  0  0  0  0  0  0  0
   -6.3551    1.1247   -1.1305 C   0  0  0  0  0  0  0  0  0  0  0  0
   -4.0629   -0.5825    0.0592 C   0  0  0  0  0  0  0  0  0  0  0  0
   -3.5504    0.2760    1.2331 C   0  0  0  0  0  0  0  0  0  0  0  0
   -2.1390    0.5909    1.1109 N   0  0  0  0  0  0  0  0  0  0  0  0
   -1.1578   -0.3242    1.4218 C   0  0  0  0  0  0  0  0  0  0  0  0
   -1.4048   -1.4410    1.8645 O   0  0  0  0  0  0  0  0  0  0  0  0
    0.2073    0.1178    1.1142 C   0  0  0  0  0  0  0  0  0  0  0  0
    0.7195    1.4068    1.1977 C   0  0  0  0  0  0  0  0  0  0  0  0
    0.1242    2.6959    1.6408 C   0  0  0  0  0  0  0  0  0  0  0  0
    2.0373    1.3583    0.8120 N   0  0  0  0  0  0  0  0  0  0  0  0
    2.4238    0.0746    0.5258 C   0  0  0  0  0  0  0  0  0  0  0  0
    3.7577   -0.2539    0.1482 C   0  0  0  0  0  0  0  0  0  0  0  0
    4.8122    0.5498   -0.0704 C   0  0  0  0  0  0  0  0  0  0  0  0
    4.9509    2.0527    0.0073 C   0  0  0  0  0  0  0  0  0  0  0  0
    4.1061    2.8760    0.3054 O   0  0  0  0  0  0  0  0  0  0  0  0
    6.2665    2.3223   -0.3303 N   0  0  0  0  0  0  0  0  0  0  0  0
    6.9702    1.1579   -0.6070 C   0  0  0  0  0  0  0  0  0  0  0  0
    8.2996    1.0655   -0.9721 C   0  0  0  0  0  0  0  0  0  0  0  0
    8.8096   -0.2128   -1.2042 C   0  0  0  0  0  0  0  0  0  0  0  0
    7.9848   -1.3386   -1.0651 C   0  0  0  0  0  0  0  0  0  0  0  0
    8.5009   -2.5534   -1.2944 F   0  0  0  0  0  0  0  0  0  0  0  0
    6.6441   -1.2299   -0.6955 C   0  0  0  0  0  0  0  0  0  0  0  0
    6.1407    0.0392   -0.4661 C   0  0  0  0  0  0  0  0  0  0  0  0
    1.2999   -0.7275    0.7010 C   0  0  0  0  0  0  0  0  0  0  0  0
    1.2071   -2.2060    0.5088 C   0  0  0  0  0  0  0  0  0  0  0  0
   -7.9805   -1.7632   -1.1049 H   0  0  0  0  0  0  0  0  0  0  0  0
   -7.3229   -3.3461   -1.5176 H   0  0  0  0  0  0  0  0  0  0  0  0
   -7.4338   -2.8641    0.1810 H   0  0  0  0  0  0  0  0  0  0  0  0
   -5.6447   -1.5218   -1.9281 H   0  0  0  0  0  0  0  0  0  0  0  0
   -5.1223   -2.7735   -0.8098 H   0  0  0  0  0  0  0  0  0  0  0  0
   -7.4289   -0.0922    0.2709 H   0  0  0  0  0  0  0  0  0  0  0  0
   -6.1902    0.8602    0.9908 H   0  0  0  0  0  0  0  0  0  0  0  0
   -5.3663    1.5675   -1.2816 H   0  0  0  0  0  0  0  0  0  0  0  0
   -7.0680    1.9487   -1.0190 H   0  0  0  0  0  0  0  0  0  0  0  0
   -6.6326    0.5724   -2.0331 H   0  0  0  0  0  0  0  0  0  0  0  0
   -3.8186   -0.0874   -0.8894 H   0  0  0  0  0  0  0  0  0  0  0  0
   -3.4816   -1.5141    0.0654 H   0  0  0  0  0  0  0  0  0  0  0  0
   -3.7140   -0.2469    2.1821 H   0  0  0  0  0  0  0  0  0  0  0  0
   -4.0652    1.2399    1.2761 H   0  0  0  0  0  0  0  0  0  0  0  0
   -1.8677    1.3905    0.5574 H   0  0  0  0  0  0  0  0  0  0  0  0
   -0.4129    3.1717    0.8145 H   0  0  0  0  0  0  0  0  0  0  0  0
   -0.5729    2.5410    2.4701 H   0  0  0  0  0  0  0  0  0  0  0  0
    0.8955    3.3919    1.9880 H   0  0  0  0  0  0  0  0  0  0  0  0
    2.6446    2.1716    0.7762 H   0  0  0  0  0  0  0  0  0  0  0  0
    3.9232   -1.3216    0.0236 H   0  0  0  0  0  0  0  0  0  0  0  0
    6.6397    3.2591   -0.3573 H   0  0  0  0  0  0  0  0  0  0  0  0
    8.9275    1.9430   -1.0760 H   0  0  0  0  0  0  0  0  0  0  0  0
    9.8477   -0.3495   -1.4940 H   0  0  0  0  0  0  0  0  0  0  0  0
    6.0410   -2.1242   -0.5983 H   0  0  0  0  0  0  0  0  0  0  0  0
    2.0291   -2.5916   -0.1010 H   0  0  0  0  0  0  0  0  0  0  0  0
    1.2326   -2.7141    1.4780 H   0  0  0  0  0  0  0  0  0  0  0  0
    0.2769   -2.4741   -0.0026 H   0  0  0  0  0  0  0  0  0  0  0  0
  1  2  1  0
  2  3  1  0
  3  4  1  0
  4  5  1  0
  3  6  1  0
  6  7  1  0
  7  8  1  0
  8  9  1  0
  9 10  2  0
  9 11  1  0
 11 12  2  0
 12 13  1  0
 12 14  1  0
 14 15  1  0
 15 16  1  0
 16 17  2  0
 17 18  1  0
 18 19  2  0
 18 20  1  0
 20 21  1  0
 21 22  1  0
 22 23  2  0
 23 24  1  0
 24 25  1  0
 24 26  2  0
 26 27  1  0
 15 28  2  0
 28 29  1  0
 28 11  1  0
 27 17  1  0
 27 21  2  0
  1 30  1  0
  1 31  1  0
  1 32  1  0
  2 33  1  0
  2 34  1  0
  4 35  1  0
  4 36  1  0
  5 37  1  0
  5 38  1  0
  5 39  1  0
  6 40  1  0
  6 41  1  0
  7 42  1  0
  7 43  1  0
  8 44  1  0
 13 45  1  0
 13 46  1  0
 13 47  1  0
 14 48  1  0
 16 49  1  0
 20 50  1  0
 22 51  1  0
 23 52  1  0
 26 53  1  0
 29 54  1  0
 29 55  1  0
 29 56  1  0
M  END
$$$$
