
     RDKit          3D

 56 58  0  0  0  0  0  0  0  0999 V2000
  -33.5000  157.2130    4.5770 C   0  0  0  0  0  0  0  0  0  0  0  0
  -34.9260  156.8150    4.9420 C   0  0  0  0  0  0  0  0  0  0  0  0
  -35.9500  157.7760    4.4940 N   0  0  0  0  0  0  0  0  0  0  0  0
  -36.6180  158.4950    5.5890 C   0  0  0  0  0  0  0  0  0  0  0  0
  -36.2300  158.0870    7.0070 C   0  0  0  0  0  0  0  0  0  0  0  0
  -36.8790  157.1100    3.5560 C   0  0  0  0  0  0  0  0  0  0  0  0
  -38.3350  157.6120    3.6110 C   0  0  0  0  0  0  0  0  0  0  0  0
  -38.7330  158.2860    2.3890 N   0  0  0  0  0  0  0  0  0  0  0  0
  -40.0540  158.3960    2.0140 C   0  0  0  0  0  0  0  0  0  0  0  0
  -40.9720  157.8970    2.6550 O   0  0  0  0  0  0  0  0  0  0  0  0
  -40.2810  159.2220    0.8220 C   0  0  0  0  0  0  0  0  0  0  0  0
  -41.3270  160.1080    0.5920 C   0  0  0  0  0  0  0  0  0  0  0  0
  -42.4780  160.5390    1.4290 C   0  0  0  0  0  0  0  0  0  0  0  0
  -41.1410  160.6570   -0.6540 N   0  0  0  0  0  0  0  0  0  0  0  0
  -39.9840  160.2030   -1.2300 C   0  0  0  0  0  0  0  0  0  0  0  0
  -39.5360  160.6580   -2.5040 C   0  0  0  0  0  0  0  0  0  0  0  0
  -39.1280  161.8800   -2.8850 C   0  0  0  0  0  0  0  0  0  0  0  0
  -39.0020  163.1730   -2.1140 C   0  0  0  0  0  0  0  0  0  0  0  0
  -39.2440  163.3800   -0.9390 O   0  0  0  0  0  0  0  0  0  0  0  0
  -38.5370  164.1050   -3.0250 N   0  0  0  0  0  0  0  0  0  0  0  0
  -38.3540  163.5430   -4.2810 C   0  0  0  0  0  0  0  0  0  0  0  0
  -37.9000  164.1890   -5.4160 C   0  0  0  0  0  0  0  0  0  0  0  0
  -37.7880  163.4290   -6.5810 C   0  0  0  0  0  0  0  0  0  0  0  0
  -38.1290  162.0680   -6.5720 C   0  0  0  0  0  0  0  0  0  0  0  0
  -38.0120  161.3640   -7.7040 F   0  0  0  0  0  0  0  0  0  0  0  0
  -38.5850  161.4290   -5.4180 C   0  0  0  0  0  0  0  0  0  0  0  0
  -38.6950  162.1860   -4.2650 C   0  0  0  0  0  0  0  0  0  0  0  0
  -39.4220  159.2980   -0.3340 C   0  0  0  0  0  0  0  0  0  0  0  0
  -38.1540  158.5280   -0.5040 C   0  0  0  0  0  0  0  0  0  0  0  0
  -32.9180  157.3754    5.4962 H   0  0  0  0  0  0  0  0  0  0  0  0
  -33.0352  156.4103    3.9858 H   0  0  0  0  0  0  0  0  0  0  0  0
  -33.5181  158.1404    3.9858 H   0  0  0  0  0  0  0  0  0  0  0  0
  -35.1417  155.8398    4.4811 H   0  0  0  0  0  0  0  0  0  0  0  0
  -34.9767  156.7849    6.0404 H   0  0  0  0  0  0  0  0  0  0  0  0
  -36.3897  159.5649    5.4747 H   0  0  0  0  0  0  0  0  0  0  0  0
  -37.6846  158.2432    5.4949 H   0  0  0  0  0  0  0  0  0  0  0  0
  -36.8010  158.6874    7.7305 H   0  0  0  0  0  0  0  0  0  0  0  0
  -36.4555  157.0208    7.1564 H   0  0  0  0  0  0  0  0  0  0  0  0
  -35.1538  158.2587    7.1564 H   0  0  0  0  0  0  0  0  0  0  0  0
  -36.5027  157.2673    2.5344 H   0  0  0  0  0  0  0  0  0  0  0  0
  -36.9085  156.0515    3.8539 H   0  0  0  0  0  0  0  0  0  0  0  0
  -39.0000  156.7508    3.7724 H   0  0  0  0  0  0  0  0  0  0  0  0
  -38.4093  158.3376    4.4344 H   0  0  0  0  0  0  0  0  0  0  0  0
  -38.0710  158.8980    1.9360 H   0  0  0  0  0  0  0  0  0  0  0  0
  -42.2151  160.4406    2.4926 H   0  0  0  0  0  0  0  0  0  0  0  0
  -42.7202  161.5887    1.2068 H   0  0  0  0  0  0  0  0  0  0  0  0
  -43.3501  159.9065    1.2068 H   0  0  0  0  0  0  0  0  0  0  0  0
  -41.7730  161.3360   -1.0700 H   0  0  0  0  0  0  0  0  0  0  0  0
  -39.5222  159.8934   -3.2947 H   0  0  0  0  0  0  0  0  0  0  0  0
  -38.3580  165.0670   -2.7760 H   0  0  0  0  0  0  0  0  0  0  0  0
  -37.6381  165.2573   -5.4013 H   0  0  0  0  0  0  0  0  0  0  0  0
  -37.4312  163.8985   -7.5096 H   0  0  0  0  0  0  0  0  0  0  0  0
  -38.8478  160.3609   -5.4249 H   0  0  0  0  0  0  0  0  0  0  0  0
  -37.7417  158.2776    0.4846 H   0  0  0  0  0  0  0  0  0  0  0  0
  -38.3593  157.6019   -1.0609 H   0  0  0  0  0  0  0  0  0  0  0  0
  -37.4269  159.1372   -1.0609 H   0  0  0  0  0  0  0  0  0  0  0  0
  1  2  1  0
  2  3  1  0
  3  4  1  0
  4  5  1  0
  3  6  1  0
  6  7  1  0
  7  8  1  0
  8  9  1  0
  9 10  2  0
  9 11  1  0
 11 12  2  0
 12 13  1  0
 12 14  1  0
 14 15  1  0
 15 16  1  0
 16 17  2  0
 17 18  1  0
 18 19  2  0
 18 20  1  0
 20 21  1  0
 21 22  1  0
 22 23  2  0
 23 24  1  0
 24 25  1  0
 24 26  2  0
 26 27  1  0
 15 28  2  0
 28 29  1  0
 28 11  1  0
 27 17  1  0
 27 21  2  0
  1 30  1  0
  1 31  1  0
  1 32  1  0
  2 33  1  0
  2 34  1  0
  4 35  1  0
  4 36  1  0
  5 37  1  0
  5 38  1  0
  5 39  1  0
  6 40  1  0
  6 41  1  0
  7 42  1  0
  7 43  1  0
  8 44  1  0
 13 45  1  0
 13 46  1  0
 13 47  1  0
 14 48  1  0
 16 49  1  0
 20 50  1  0
 22 51  1  0
 23 52  1  0
 26 53  1  0
 29 54  1  0
 29 55  1  0
 29 56  1  0
M  END
>  <meeko>  (1) 
{"is_sidechain": false}

>  <vina_affinity_kcal_mol>  (1) 
-9.727

>  <pose_rank>  (1) 
1

$$$$

     RDKit          3D

 56 58  0  0  0  0  0  0  0  0999 V2000
  -36.6660  156.2510    6.3710 C   0  0  0  0  0  0  0  0  0  0  0  0
  -36.1680  155.8240    4.9940 C   0  0  0  0  0  0  0  0  0  0  0  0
  -35.7170  156.9420    4.1460 N   0  0  0  0  0  0  0  0  0  0  0  0
  -34.5640  157.6780    4.6860 C   0  0  0  0  0  0  0  0  0  0  0  0
  -33.2870  156.8730    4.9080 C   0  0  0  0  0  0  0  0  0  0  0  0
  -36.8720  157.7990    3.8010 C   0  0  0  0  0  0  0  0  0  0  0  0
  -37.9430  157.1280    2.9180 C   0  0  0  0  0  0  0  0  0  0  0  0
  -38.5100  158.0440    1.9460 N   0  0  0  0  0  0  0  0  0  0  0  0
  -39.8260  158.4460    2.0030 C   0  0  0  0  0  0  0  0  0  0  0  0
  -40.6160  158.0240    2.8420 O   0  0  0  0  0  0  0  0  0  0  0  0
  -40.1920  159.4740    1.0220 C   0  0  0  0  0  0  0  0  0  0  0  0
  -41.4280  160.0890    0.8610 C   0  0  0  0  0  0  0  0  0  0  0  0
  -42.7130  159.9680    1.6000 C   0  0  0  0  0  0  0  0  0  0  0  0
  -41.3170  160.9820   -0.1770 N   0  0  0  0  0  0  0  0  0  0  0  0
  -40.0390  161.0140   -0.6710 C   0  0  0  0  0  0  0  0  0  0  0  0
  -39.6480  161.8940   -1.7210 C   0  0  0  0  0  0  0  0  0  0  0  0
  -39.2440  161.6140   -2.9720 C   0  0  0  0  0  0  0  0  0  0  0  0
  -39.0670  160.2960   -3.6890 C   0  0  0  0  0  0  0  0  0  0  0  0
  -39.2720  159.1730   -3.2680 O   0  0  0  0  0  0  0  0  0  0  0  0
  -38.6190  160.6210   -4.9580 N   0  0  0  0  0  0  0  0  0  0  0  0
  -38.4980  161.9940   -5.1200 C   0  0  0  0  0  0  0  0  0  0  0  0
  -38.0820  162.6570   -6.2590 C   0  0  0  0  0  0  0  0  0  0  0  0
  -38.0350  164.0510   -6.2040 C   0  0  0  0  0  0  0  0  0  0  0  0
  -38.4010  164.7250   -5.0300 C   0  0  0  0  0  0  0  0  0  0  0  0
  -38.3460  166.0620   -5.0060 F   0  0  0  0  0  0  0  0  0  0  0  0
  -38.8200  164.0420   -3.8880 C   0  0  0  0  0  0  0  0  0  0  0  0
  -38.8660  162.6600   -3.9450 C   0  0  0  0  0  0  0  0  0  0  0  0
  -39.3080  160.0770    0.0550 C   0  0  0  0  0  0  0  0  0  0  0  0
  -37.8640  159.7350   -0.1080 C   0  0  0  0  0  0  0  0  0  0  0  0
  -36.0749  155.7442    7.1481 H   0  0  0  0  0  0  0  0  0  0  0  0
  -36.5565  157.3402    6.4790 H   0  0  0  0  0  0  0  0  0  0  0  0
  -37.7257  155.9765    6.4790 H   0  0  0  0  0  0  0  0  0  0  0  0
  -35.3244  155.1315    5.1308 H   0  0  0  0  0  0  0  0  0  0  0  0
  -37.0201  155.3572    4.4782 H   0  0  0  0  0  0  0  0  0  0  0  0
  -34.3285  158.4919    3.9845 H   0  0  0  0  0  0  0  0  0  0  0  0
  -34.8748  158.0134    5.6864 H   0  0  0  0  0  0  0  0  0  0  0  0
  -33.1078  156.7600    5.9874 H   0  0  0  0  0  0  0  0  0  0  0  0
  -33.3952  155.8795    4.4483 H   0  0  0  0  0  0  0  0  0  0  0  0
  -32.4373  157.3991    4.4483 H   0  0  0  0  0  0  0  0  0  0  0  0
  -37.3528  158.1165    4.7380 H   0  0  0  0  0  0  0  0  0  0  0  0
  -36.4681  158.6349    3.2110 H   0  0  0  0  0  0  0  0  0  0  0  0
  -37.4821  156.2850    2.3824 H   0  0  0  0  0  0  0  0  0  0  0  0
  -38.7572  156.7900    3.5759 H   0  0  0  0  0  0  0  0  0  0  0  0
  -37.8830  158.5920    1.3750 H   0  0  0  0  0  0  0  0  0  0  0  0
  -42.5168  159.9865    2.6822 H   0  0  0  0  0  0  0  0  0  0  0  0
  -43.3705  160.8082    1.3322 H   0  0  0  0  0  0  0  0  0  0  0  0
  -43.2021  159.0198    1.3322 H   0  0  0  0  0  0  0  0  0  0  0  0
  -42.0840  161.5620   -0.5070 H   0  0  0  0  0  0  0  0  0  0  0  0
  -39.6819  162.9644   -1.4699 H   0  0  0  0  0  0  0  0  0  0  0  0
  -38.4190  159.9230   -5.6590 H   0  0  0  0  0  0  0  0  0  0  0  0
  -37.7999  162.1094   -7.1703 H   0  0  0  0  0  0  0  0  0  0  0  0
  -37.7095  164.6232   -7.0853 H   0  0  0  0  0  0  0  0  0  0  0  0
  -39.1041  164.5834   -2.9736 H   0  0  0  0  0  0  0  0  0  0  0  0
  -37.3992  159.6249    0.8829 H   0  0  0  0  0  0  0  0  0  0  0  0
  -37.7714  158.7901   -0.6635 H   0  0  0  0  0  0  0  0  0  0  0  0
  -37.3574  160.5380   -0.6635 H   0  0  0  0  0  0  0  0  0  0  0  0
  1  2  1  0
  2  3  1  0
  3  4  1  0
  4  5  1  0
  3  6  1  0
  6  7  1  0
  7  8  1  0
  8  9  1  0
  9 10  2  0
  9 11  1  0
 11 12  2  0
 12 13  1  0
 12 14  1  0
 14 15  1  0
 15 16  1  0
 16 17  2  0
 17 18  1  0
 18 19  2  0
 18 20  1  0
 20 21  1  0
 21 22  1  0
 22 23  2  0
 23 24  1  0
 24 25  1  0
 24 26  2  0
 26 27  1  0
 15 28  2  0
 28 29  1  0
 28 11  1  0
 27 17  1  0
 27 21  2  0
  1 30  1  0
  1 31  1  0
  1 32  1  0
  2 33  1  0
  2 34  1  0
  4 35  1  0
  4 36  1  0
  5 37  1  0
  5 38  1  0
  5 39  1  0
  6 40  1  0
  6 41  1  0
  7 42  1  0
  7 43  1  0
  8 44  1  0
 13 45  1  0
 13 46  1  0
 13 47  1  0
 14 48  1  0
 16 49  1  0
 20 50  1  0
 22 51  1  0
 23 52  1  0
 26 53  1  0
 29 54  1  0
 29 55  1  0
 29 56  1  0
M  END
>  <meeko>  (2) 
{"is_sidechain": false}

>  <vina_affinity_kcal_mol>  (2) 
-9.712

>  <pose_rank>  (2) 
2

$$$$

     RDKit          3D

 56 58  0  0  0  0  0  0  0  0999 V2000
  -35.0770  165.4340  -11.2930 C   0  0  0  0  0  0  0  0  0  0  0  0
  -36.4200  165.9490  -10.7880 C   0  0  0  0  0  0  0  0  0  0  0  0
  -37.2150  164.9410  -10.0650 N   0  0  0  0  0  0  0  0  0  0  0  0
  -37.7240  163.8550  -10.9160 C   0  0  0  0  0  0  0  0  0  0  0  0
  -38.6000  162.8090  -10.2320 C   0  0  0  0  0  0  0  0  0  0  0  0
  -38.2570  165.6140   -9.2590 C   0  0  0  0  0  0  0  0  0  0  0  0
  -37.9310  165.7600   -7.7590 C   0  0  0  0  0  0  0  0  0  0  0  0
  -38.3480  164.6040   -6.9890 N   0  0  0  0  0  0  0  0  0  0  0  0
  -37.6960  164.2190   -5.8390 C   0  0  0  0  0  0  0  0  0  0  0  0
  -36.6970  164.7930   -5.4160 O   0  0  0  0  0  0  0  0  0  0  0  0
  -38.3320  163.1110   -5.1190 C   0  0  0  0  0  0  0  0  0  0  0  0
  -38.5230  161.8090   -5.5660 C   0  0  0  0  0  0  0  0  0  0  0  0
  -38.1380  161.1130   -6.8230 C   0  0  0  0  0  0  0  0  0  0  0  0
  -39.1630  161.1150   -4.5670 N   0  0  0  0  0  0  0  0  0  0  0  0
  -39.3530  161.8990   -3.4600 C   0  0  0  0  0  0  0  0  0  0  0  0
  -39.9520  161.4020   -2.2650 C   0  0  0  0  0  0  0  0  0  0  0  0
  -39.5140  160.4610   -1.4130 C   0  0  0  0  0  0  0  0  0  0  0  0
  -38.2600  159.6170   -1.4190 C   0  0  0  0  0  0  0  0  0  0  0  0
  -37.3480  159.6240   -2.2240 O   0  0  0  0  0  0  0  0  0  0  0  0
  -38.3470  158.8140   -0.2950 N   0  0  0  0  0  0  0  0  0  0  0  0
  -39.5120  159.0600    0.4190 C   0  0  0  0  0  0  0  0  0  0  0  0
  -39.9110  158.4390    1.5870 C   0  0  0  0  0  0  0  0  0  0  0  0
  -41.1260  158.8430    2.1420 C   0  0  0  0  0  0  0  0  0  0  0  0
  -41.8910  159.8400    1.5180 C   0  0  0  0  0  0  0  0  0  0  0  0
  -43.0530  160.2080    2.0720 F   0  0  0  0  0  0  0  0  0  0  0  0
  -41.4750  160.4590    0.3390 C   0  0  0  0  0  0  0  0  0  0  0  0
  -40.2700  160.0560   -0.2090 C   0  0  0  0  0  0  0  0  0  0  0  0
  -38.8480  163.1580   -3.7720 C   0  0  0  0  0  0  0  0  0  0  0  0
  -38.8240  164.3650   -2.8930 C   0  0  0  0  0  0  0  0  0  0  0  0
  -34.4332  165.1871  -10.4359 H   0  0  0  0  0  0  0  0  0  0  0  0
  -35.2359  164.5330  -11.9037 H   0  0  0  0  0  0  0  0  0  0  0  0
  -34.5928  166.2102  -11.9037 H   0  0  0  0  0  0  0  0  0  0  0  0
  -36.2332  166.7942  -10.1092 H   0  0  0  0  0  0  0  0  0  0  0  0
  -37.0035  166.2385  -11.6744 H   0  0  0  0  0  0  0  0  0  0  0  0
  -38.3164  164.3118  -11.7225 H   0  0  0  0  0  0  0  0  0  0  0  0
  -36.8319  163.3098  -11.2579 H   0  0  0  0  0  0  0  0  0  0  0  0
  -38.5120  162.9140   -9.1406 H   0  0  0  0  0  0  0  0  0  0  0  0
  -39.6482  162.9562  -10.5312 H   0  0  0  0  0  0  0  0  0  0  0  0
  -38.2711  161.8029  -10.5312 H   0  0  0  0  0  0  0  0  0  0  0  0
  -38.4112  166.6211   -9.6738 H   0  0  0  0  0  0  0  0  0  0  0  0
  -39.1502  164.9746   -9.3176 H   0  0  0  0  0  0  0  0  0  0  0  0
  -36.8445  165.8881   -7.6442 H   0  0  0  0  0  0  0  0  0  0  0  0
  -38.4814  166.6333   -7.3789 H   0  0  0  0  0  0  0  0  0  0  0  0
  -39.2700  164.2250   -7.1460 H   0  0  0  0  0  0  0  0  0  0  0  0
  -37.6189  160.1746   -6.5783 H   0  0  0  0  0  0  0  0  0  0  0  0
  -39.0411  160.8901   -7.4101 H   0  0  0  0  0  0  0  0  0  0  0  0
  -37.4693  161.7596   -7.4101 H   0  0  0  0  0  0  0  0  0  0  0  0
  -39.4280  160.1360   -4.6410 H   0  0  0  0  0  0  0  0  0  0  0  0
  -40.9178  161.8579   -2.0017 H   0  0  0  0  0  0  0  0  0  0  0  0
  -37.6340  158.1450   -0.0480 H   0  0  0  0  0  0  0  0  0  0  0  0
  -39.2965  157.6586    2.0597 H   0  0  0  0  0  0  0  0  0  0  0  0
  -41.4852  158.3782    3.0720 H   0  0  0  0  0  0  0  0  0  0  0  0
  -42.0840  161.2406   -0.1386 H   0  0  0  0  0  0  0  0  0  0  0  0
  -38.8302  164.0510   -1.8388 H   0  0  0  0  0  0  0  0  0  0  0  0
  -37.9141  164.9487   -3.0964 H   0  0  0  0  0  0  0  0  0  0  0  0
  -39.7100  164.9844   -3.0964 H   0  0  0  0  0  0  0  0  0  0  0  0
  1  2  1  0
  2  3  1  0
  3  4  1  0
  4  5  1  0
  3  6  1  0
  6  7  1  0
  7  8  1  0
  8  9  1  0
  9 10  2  0
  9 11  1  0
 11 12  2  0
 12 13  1  0
 12 14  1  0
 14 15  1  0
 15 16  1  0
 16 17  2  0
 17 18  1  0
 18 19  2  0
 18 20  1  0
 20 21  1  0
 21 22  1  0
 22 23  2  0
 23 24  1  0
 24 25  1  0
 24 26  2  0
 26 27  1  0
 15 28  2  0
 28 29  1  0
 28 11  1  0
 27 17  1  0
 27 21  2  0
  1 30  1  0
  1 31  1  0
  1 32  1  0
  2 33  1  0
  2 34  1  0
  4 35  1  0
  4 36  1  0
  5 37  1  0
  5 38  1  0
  5 39  1  0
  6 40  1  0
  6 41  1  0
  7 42  1  0
  7 43  1  0
  8 44  1  0
 13 45  1  0
 13 46  1  0
 13 47  1  0
 14 48  1  0
 16 49  1  0
 20 50  1  0
 22 51  1  0
 23 52  1  0
 26 53  1  0
 29 54  1  0
 29 55  1  0
 29 56  1  0
M  END
>  <meeko>  (3) 
{"is_sidechain": false}

>  <vina_affinity_kcal_mol>  (3) 
-9.38

>  <pose_rank>  (3) 
3

$$$$

     RDKit          3D

 56 58  0  0  0  0  0  0  0  0999 V2000
  -38.4710  158.2180   -0.6400 C   0  0  0  0  0  0  0  0  0  0  0  0
  -38.5500  158.4030    0.8720 C   0  0  0  0  0  0  0  0  0  0  0  0
  -39.7890  159.0550    1.3320 N   0  0  0  0  0  0  0  0  0  0  0  0
  -40.3630  158.4610    2.5480 C   0  0  0  0  0  0  0  0  0  0  0  0
  -41.8860  158.4360    2.6400 C   0  0  0  0  0  0  0  0  0  0  0  0
  -40.7410  159.1620    0.2060 C   0  0  0  0  0  0  0  0  0  0  0  0
  -41.2720  160.5840   -0.0680 C   0  0  0  0  0  0  0  0  0  0  0  0
  -40.7260  161.1510   -1.2870 N   0  0  0  0  0  0  0  0  0  0  0  0
  -39.5110  161.7980   -1.3100 C   0  0  0  0  0  0  0  0  0  0  0  0
  -38.8340  161.9810   -0.3030 O   0  0  0  0  0  0  0  0  0  0  0  0
  -39.0550  162.1900   -2.6490 C   0  0  0  0  0  0  0  0  0  0  0  0
  -38.7420  163.4680   -3.0960 C   0  0  0  0  0  0  0  0  0  0  0  0
  -38.7150  164.7910   -2.4160 C   0  0  0  0  0  0  0  0  0  0  0  0
  -38.3650  163.3680   -4.4140 N   0  0  0  0  0  0  0  0  0  0  0  0
  -38.3700  162.0640   -4.8340 C   0  0  0  0  0  0  0  0  0  0  0  0
  -37.9720  161.6840   -6.1490 C   0  0  0  0  0  0  0  0  0  0  0  0
  -37.8910  162.4210   -7.2690 C   0  0  0  0  0  0  0  0  0  0  0  0
  -38.1880  163.8810   -7.5240 C   0  0  0  0  0  0  0  0  0  0  0  0
  -38.5660  164.7250   -6.7330 O   0  0  0  0  0  0  0  0  0  0  0  0
  -37.9330  164.0830   -8.8690 N   0  0  0  0  0  0  0  0  0  0  0  0
  -37.5070  162.9150   -9.4880 C   0  0  0  0  0  0  0  0  0  0  0  0
  -37.1660  162.7640  -10.8190 C   0  0  0  0  0  0  0  0  0  0  0  0
  -36.7600  161.4950  -11.2330 C   0  0  0  0  0  0  0  0  0  0  0  0
  -36.7090  160.4350  -10.3150 C   0  0  0  0  0  0  0  0  0  0  0  0
  -36.3160  159.2280  -10.7410 F   0  0  0  0  0  0  0  0  0  0  0  0
  -37.0550  160.6020   -8.9740 C   0  0  0  0  0  0  0  0  0  0  0  0
  -37.4580  161.8620   -8.5670 C   0  0  0  0  0  0  0  0  0  0  0  0
  -38.8020  161.2990   -3.7540 C   0  0  0  0  0  0  0  0  0  0  0  0
  -38.9780  159.8170   -3.7100 C   0  0  0  0  0  0  0  0  0  0  0  0
  -38.0483  157.2281   -0.8667 H   0  0  0  0  0  0  0  0  0  0  0  0
  -39.4799  158.2935   -1.0719 H   0  0  0  0  0  0  0  0  0  0  0  0
  -37.8279  158.9990   -1.0719 H   0  0  0  0  0  0  0  0  0  0  0  0
  -38.4840  157.4124    1.3456 H   0  0  0  0  0  0  0  0  0  0  0  0
  -37.7180  159.0643    1.1557 H   0  0  0  0  0  0  0  0  0  0  0  0
  -40.0072  157.4221    2.6125 H   0  0  0  0  0  0  0  0  0  0  0  0
  -40.0321  159.1093    3.3728 H   0  0  0  0  0  0  0  0  0  0  0  0
  -42.1894  158.4310    3.6973 H   0  0  0  0  0  0  0  0  0  0  0  0
  -42.2979  159.3275    2.1445 H   0  0  0  0  0  0  0  0  0  0  0  0
  -42.2685  157.5315    2.1445 H   0  0  0  0  0  0  0  0  0  0  0  0
  -40.2348  158.8060   -0.7034 H   0  0  0  0  0  0  0  0  0  0  0  0
  -41.6158  158.5565    0.4855 H   0  0  0  0  0  0  0  0  0  0  0  0
  -42.3675  160.5412   -0.1576 H   0  0  0  0  0  0  0  0  0  0  0  0
  -40.9619  161.2259    0.7697 H   0  0  0  0  0  0  0  0  0  0  0  0
  -41.1090  160.8540   -2.1720 H   0  0  0  0  0  0  0  0  0  0  0  0
  -38.7180  164.6431   -1.3260 H   0  0  0  0  0  0  0  0  0  0  0  0
  -37.8056  165.3357   -2.7096 H   0  0  0  0  0  0  0  0  0  0  0  0
  -39.6015  165.3723   -2.7096 H   0  0  0  0  0  0  0  0  0  0  0  0
  -38.0910  164.1630   -4.9840 H   0  0  0  0  0  0  0  0  0  0  0  0
  -37.6883  160.6274   -6.2639 H   0  0  0  0  0  0  0  0  0  0  0  0
  -38.0470  164.9800   -9.3160 H   0  0  0  0  0  0  0  0  0  0  0  0
  -37.2128  163.6087  -11.5221 H   0  0  0  0  0  0  0  0  0  0  0  0
  -36.4789  161.3249  -12.2828 H   0  0  0  0  0  0  0  0  0  0  0  0
  -37.0092  159.7621   -8.2652 H   0  0  0  0  0  0  0  0  0  0  0  0
  -39.0176  159.4834   -2.6626 H   0  0  0  0  0  0  0  0  0  0  0  0
  -39.9149  159.5438   -4.2175 H   0  0  0  0  0  0  0  0  0  0  0  0
  -38.1311  159.3320   -4.2175 H   0  0  0  0  0  0  0  0  0  0  0  0
  1  2  1  0
  2  3  1  0
  3  4  1  0
  4  5  1  0
  3  6  1  0
  6  7  1  0
  7  8  1  0
  8  9  1  0
  9 10  2  0
  9 11  1  0
 11 12  2  0
 12 13  1  0
 12 14  1  0
 14 15  1  0
 15 16  1  0
 16 17  2  0
 17 18  1  0
 18 19  2  0
 18 20  1  0
 20 21  1  0
 21 22  1  0
 22 23  2  0
 23 24  1  0
 24 25  1  0
 24 26  2  0
 26 27  1  0
 15 28  2  0
 28 29  1  0
 28 11  1  0
 27 17  1  0
 27 21  2  0
  1 30  1  0
  1 31  1  0
  1 32  1  0
  2 33  1  0
  2 34  1  0
  4 35  1  0
  4 36  1  0
  5 37  1  0
  5 38  1  0
  5 39  1  0
  6 40  1  0
  6 41  1  0
  7 42  1  0
  7 43  1  0
  8 44  1  0
 13 45  1  0
 13 46  1  0
 13 47  1  0
 14 48  1  0
 16 49  1  0
 20 50  1  0
 22 51  1  0
 23 52  1  0
 26 53  1  0
 29 54  1  0
 29 55  1  0
 29 56  1  0
M  END
>  <meeko>  (4) 
{"is_sidechain": false}

>  <vina_affinity_kcal_mol>  (4) 
-9.333

>  <pose_rank>  (4) 
4

$$$$

     RDKit          3D

 56 58  0  0  0  0  0  0  0  0999 V2000
  -34.7990  164.2750  -11.1110 C   0  0  0  0  0  0  0  0  0  0  0  0
  -36.0740  163.5130  -10.7640 C   0  0  0  0  0  0  0  0  0  0  0  0
  -37.2760  164.3630  -10.6790 N   0  0  0  0  0  0  0  0  0  0  0  0
  -37.0980  165.5740   -9.8640 C   0  0  0  0  0  0  0  0  0  0  0  0
  -38.2010  165.8830   -8.8560 C   0  0  0  0  0  0  0  0  0  0  0  0
  -38.4400  163.5390  -10.2890 C   0  0  0  0  0  0  0  0  0  0  0  0
  -38.0980  162.2540   -9.5080 C   0  0  0  0  0  0  0  0  0  0  0  0
  -38.4450  162.3530   -8.1030 N   0  0  0  0  0  0  0  0  0  0  0  0
  -37.5060  162.2010   -7.1070 C   0  0  0  0  0  0  0  0  0  0  0  0
  -36.3320  161.9260   -7.3350 O   0  0  0  0  0  0  0  0  0  0  0  0
  -38.0050  162.4650   -5.7530 C   0  0  0  0  0  0  0  0  0  0  0  0
  -37.8330  163.6180   -4.9960 C   0  0  0  0  0  0  0  0  0  0  0  0
  -37.1700  164.9170   -5.2850 C   0  0  0  0  0  0  0  0  0  0  0  0
  -38.4650  163.4240   -3.7910 N   0  0  0  0  0  0  0  0  0  0  0  0
  -39.0900  162.2050   -3.7480 C   0  0  0  0  0  0  0  0  0  0  0  0
  -39.8580  161.7800   -2.6260 C   0  0  0  0  0  0  0  0  0  0  0  0
  -39.6040  160.8140   -1.7270 C   0  0  0  0  0  0  0  0  0  0  0  0
  -38.4400  159.8590   -1.5930 C   0  0  0  0  0  0  0  0  0  0  0  0
  -37.4490  159.7730   -2.2940 O   0  0  0  0  0  0  0  0  0  0  0  0
  -38.7230  159.0820   -0.4840 N   0  0  0  0  0  0  0  0  0  0  0  0
  -39.9310  159.4430    0.0970 C   0  0  0  0  0  0  0  0  0  0  0  0
  -40.5110  158.8760    1.2170 C   0  0  0  0  0  0  0  0  0  0  0  0
  -41.7370  159.3960    1.6330 C   0  0  0  0  0  0  0  0  0  0  0  0
  -42.3340  160.4500    0.9270 C   0  0  0  0  0  0  0  0  0  0  0  0
  -43.5110  160.9290    1.3490 F   0  0  0  0  0  0  0  0  0  0  0  0
  -41.7370  161.0140   -0.2020 C   0  0  0  0  0  0  0  0  0  0  0  0
  -40.5210  160.4950   -0.6130 C   0  0  0  0  0  0  0  0  0  0  0  0
  -38.8190  161.5750   -4.9600 C   0  0  0  0  0  0  0  0  0  0  0  0
  -39.2760  160.2230   -5.3980 C   0  0  0  0  0  0  0  0  0  0  0  0
  -34.2900  164.5792  -10.1845 H   0  0  0  0  0  0  0  0  0  0  0  0
  -34.1330  163.6267  -11.6994 H   0  0  0  0  0  0  0  0  0  0  0  0
  -35.0545  165.1686  -11.6994 H   0  0  0  0  0  0  0  0  0  0  0  0
  -36.2433  162.7509  -11.5389 H   0  0  0  0  0  0  0  0  0  0  0  0
  -35.9220  163.0757   -9.7662 H   0  0  0  0  0  0  0  0  0  0  0  0
  -36.1559  165.4664   -9.3064 H   0  0  0  0  0  0  0  0  0  0  0  0
  -37.1125  166.4108  -10.5779 H   0  0  0  0  0  0  0  0  0  0  0  0
  -37.8063  165.7724   -7.8352 H   0  0  0  0  0  0  0  0  0  0  0  0
  -38.5536  166.9145   -9.0030 H   0  0  0  0  0  0  0  0  0  0  0  0
  -39.0382  165.1848   -9.0030 H   0  0  0  0  0  0  0  0  0  0  0  0
  -39.0987  164.1555   -9.6596 H   0  0  0  0  0  0  0  0  0  0  0  0
  -38.9123  163.2115  -11.2269 H   0  0  0  0  0  0  0  0  0  0  0  0
  -38.6524  161.4133   -9.9506 H   0  0  0  0  0  0  0  0  0  0  0  0
  -37.0110  162.0994   -9.5753 H   0  0  0  0  0  0  0  0  0  0  0  0
  -39.3210  162.7870   -7.8500 H   0  0  0  0  0  0  0  0  0  0  0  0
  -36.9148  165.4169   -4.3390 H   0  0  0  0  0  0  0  0  0  0  0  0
  -36.2523  164.7393   -5.8649 H   0  0  0  0  0  0  0  0  0  0  0  0
  -37.8523  165.5559   -5.8649 H   0  0  0  0  0  0  0  0  0  0  0  0
  -38.4850  164.1160   -3.0470 H   0  0  0  0  0  0  0  0  0  0  0  0
  -40.8012  162.3247   -2.4723 H   0  0  0  0  0  0  0  0  0  0  0  0
  -38.1050  158.3540   -0.1570 H   0  0  0  0  0  0  0  0  0  0  0  0
  -40.0261  158.0496    1.7573 H   0  0  0  0  0  0  0  0  0  0  0  0
  -42.2373  158.9773    2.5186 H   0  0  0  0  0  0  0  0  0  0  0  0
  -42.2159  161.8416   -0.7459 H   0  0  0  0  0  0  0  0  0  0  0  0
  -39.4857  159.6027   -4.5141 H   0  0  0  0  0  0  0  0  0  0  0  0
  -40.1904  160.3227   -6.0013 H   0  0  0  0  0  0  0  0  0  0  0  0
  -38.4887  159.7475   -6.0013 H   0  0  0  0  0  0  0  0  0  0  0  0
  1  2  1  0
  2  3  1  0
  3  4  1  0
  4  5  1  0
  3  6  1  0
  6  7  1  0
  7  8  1  0
  8  9  1  0
  9 10  2  0
  9 11  1  0
 11 12  2  0
 12 13  1  0
 12 14  1  0
 14 15  1  0
 15 16  1  0
 16 17  2  0
 17 18  1  0
 18 19  2  0
 18 20  1  0
 20 21  1  0
 21 22  1  0
 22 23  2  0
 23 24  1  0
 24 25  1  0
 24 26  2  0
 26 27  1  0
 15 28  2  0
 28 29  1  0
 28 11  1  0
 27 17  1  0
 27 21  2  0
  1 30  1  0
  1 31  1  0
  1 32  1  0
  2 33  1  0
  2 34  1  0
  4 35  1  0
  4 36  1  0
  5 37  1  0
  5 38  1  0
  5 39  1  0
  6 40  1  0
  6 41  1  0
  7 42  1  0
  7 43  1  0
  8 44  1  0
 13 45  1  0
 13 46  1  0
 13 47  1  0
 14 48  1  0
 16 49  1  0
 20 50  1  0
 22 51  1  0
 23 52  1  0
 26 53  1  0
 29 54  1  0
 29 55  1  0
 29 56  1  0
M  END
>  <meeko>  (5) 
{"is_sidechain": false}

>  <vina_affinity_kcal_mol>  (5) 
-9.173

>  <pose_rank>  (5) 
5

$$$$

     RDKit          3D

 56 58  0  0  0  0  0  0  0  0999 V2000
  -37.8540  155.8350    5.3920 C   0  0  0  0  0  0  0  0  0  0  0  0
  -37.2020  155.8850    4.0140 C   0  0  0  0  0  0  0  0  0  0  0  0
  -36.5170  157.1560    3.7210 N   0  0  0  0  0  0  0  0  0  0  0  0
  -35.7030  157.6700    4.8330 C   0  0  0  0  0  0  0  0  0  0  0  0
  -34.2020  157.4110    4.7530 C   0  0  0  0  0  0  0  0  0  0  0  0
  -37.4900  158.1320    3.1850 C   0  0  0  0  0  0  0  0  0  0  0  0
  -38.3310  157.6300    1.9940 C   0  0  0  0  0  0  0  0  0  0  0  0
  -38.2670  158.5280    0.8560 N   0  0  0  0  0  0  0  0  0  0  0  0
  -39.3990  159.0690    0.2890 C   0  0  0  0  0  0  0  0  0  0  0  0
  -40.5320  158.7950    0.6720 O   0  0  0  0  0  0  0  0  0  0  0  0
  -39.1410  160.0550   -0.7660 C   0  0  0  0  0  0  0  0  0  0  0  0
  -38.9440  161.4230   -0.6160 C   0  0  0  0  0  0  0  0  0  0  0  0
  -38.8840  162.3030    0.5810 C   0  0  0  0  0  0  0  0  0  0  0  0
  -38.7400  161.9540   -1.8670 N   0  0  0  0  0  0  0  0  0  0  0  0
  -38.7450  160.9770   -2.8290 C   0  0  0  0  0  0  0  0  0  0  0  0
  -38.5070  161.2600   -4.2050 C   0  0  0  0  0  0  0  0  0  0  0  0
  -38.4740  162.4400   -4.8470 C   0  0  0  0  0  0  0  0  0  0  0  0
  -38.6730  163.8520   -4.3460 C   0  0  0  0  0  0  0  0  0  0  0  0
  -38.9030  164.2260   -3.2110 O   0  0  0  0  0  0  0  0  0  0  0  0
  -38.5340  164.6630   -5.4580 N   0  0  0  0  0  0  0  0  0  0  0  0
  -38.2660  163.9210   -6.6010 C   0  0  0  0  0  0  0  0  0  0  0  0
  -38.0680  164.4140   -7.8770 C   0  0  0  0  0  0  0  0  0  0  0  0
  -37.8100  163.4860   -8.8860 C   0  0  0  0  0  0  0  0  0  0  0  0
  -37.7580  162.1160   -8.5890 C   0  0  0  0  0  0  0  0  0  0  0  0
  -37.5080  161.2470   -9.5770 F   0  0  0  0  0  0  0  0  0  0  0  0
  -37.9580  161.6330   -7.2960 C   0  0  0  0  0  0  0  0  0  0  0  0
  -38.2150  162.5560   -6.2970 C   0  0  0  0  0  0  0  0  0  0  0  0
  -38.9980  159.7750   -2.1740 C   0  0  0  0  0  0  0  0  0  0  0  0
  -39.1040  158.4170   -2.7860 C   0  0  0  0  0  0  0  0  0  0  0  0
  -37.0765  155.8946    6.1679 H   0  0  0  0  0  0  0  0  0  0  0  0
  -38.5465  156.6827    5.5010 H   0  0  0  0  0  0  0  0  0  0  0  0
  -38.4092  154.8917    5.5010 H   0  0  0  0  0  0  0  0  0  0  0  0
  -36.4640  155.0717    3.9508 H   0  0  0  0  0  0  0  0  0  0  0  0
  -38.0106  155.7816    3.2754 H   0  0  0  0  0  0  0  0  0  0  0  0
  -35.8523  158.7587    4.8813 H   0  0  0  0  0  0  0  0  0  0  0  0
  -36.0463  157.1223    5.7230 H   0  0  0  0  0  0  0  0  0  0  0  0
  -33.7876  157.3395    5.7694 H   0  0  0  0  0  0  0  0  0  0  0  0
  -34.0207  156.4683    4.2159 H   0  0  0  0  0  0  0  0  0  0  0  0
  -33.7152  158.2384    4.2159 H   0  0  0  0  0  0  0  0  0  0  0  0
  -38.1792  158.4072    3.9969 H   0  0  0  0  0  0  0  0  0  0  0  0
  -36.8982  158.9788    2.8071 H   0  0  0  0  0  0  0  0  0  0  0  0
  -37.9552  156.6428    1.6870 H   0  0  0  0  0  0  0  0  0  0  0  0
  -39.3797  157.5771    2.3217 H   0  0  0  0  0  0  0  0  0  0  0  0
  -37.3840  158.9630    0.6320 H   0  0  0  0  0  0  0  0  0  0  0  0
  -38.9260  161.6870    1.4914 H   0  0  0  0  0  0  0  0  0  0  0  0
  -37.9447  162.8754    0.5686 H   0  0  0  0  0  0  0  0  0  0  0  0
  -39.7369  162.9976    0.5686 H   0  0  0  0  0  0  0  0  0  0  0  0
  -38.5780  162.9420   -2.0410 H   0  0  0  0  0  0  0  0  0  0  0  0
  -38.3223  160.3792   -4.8375 H   0  0  0  0  0  0  0  0  0  0  0  0
  -38.6160  165.6680   -5.4120 H   0  0  0  0  0  0  0  0  0  0  0  0
  -38.1120  165.4927   -8.0879 H   0  0  0  0  0  0  0  0  0  0  0  0
  -37.6468  163.8297   -9.9181 H   0  0  0  0  0  0  0  0  0  0  0  0
  -37.9131  160.5558   -7.0776 H   0  0  0  0  0  0  0  0  0  0  0  0
  -39.1631  157.6598   -1.9903 H   0  0  0  0  0  0  0  0  0  0  0  0
  -40.0089  158.3653   -3.4093 H   0  0  0  0  0  0  0  0  0  0  0  0
  -38.2181  158.2255   -3.4093 H   0  0  0  0  0  0  0  0  0  0  0  0
  1  2  1  0
  2  3  1  0
  3  4  1  0
  4  5  1  0
  3  6  1  0
  6  7  1  0
  7  8  1  0
  8  9  1  0
  9 10  2  0
  9 11  1  0
 11 12  2  0
 12 13  1  0
 12 14  1  0
 14 15  1  0
 15 16  1  0
 16 17  2  0
 17 18  1  0
 18 19  2  0
 18 20  1  0
 20 21  1  0
 21 22  1  0
 22 23  2  0
 23 24  1  0
 24 25  1  0
 24 26  2  0
 26 27  1  0
 15 28  2  0
 28 29  1  0
 28 11  1  0
 27 17  1  0
 27 21  2  0
  1 30  1  0
  1 31  1  0
  1 32  1  0
  2 33  1  0
  2 34  1  0
  4 35  1  0
  4 36  1  0
  5 37  1  0
  5 38  1  0
  5 39  1  0
  6 40  1  0
  6 41  1  0
  7 42  1  0
  7 43  1  0
  8 44  1  0
 13 45  1  0
 13 46  1  0
 13 47  1  0
 14 48  1  0
 16 49  1  0
 20 50  1  0
 22 51  1  0
 23 52  1  0
 26 53  1  0
 29 54  1  0
 29 55  1  0
 29 56  1  0
M  END
>  <meeko>  (6) 
{"is_sidechain": false}

>  <vina_affinity_kcal_mol>  (6) 
-9.144

>  <pose_rank>  (6) 
6

$$$$

     RDKit          3D

 56 58  0  0  0  0  0  0  0  0999 V2000
  -41.8330  158.3010    2.8030 C   0  0  0  0  0  0  0  0  0  0  0  0
  -40.3770  158.5470    2.4190 C   0  0  0  0  0  0  0  0  0  0  0  0
  -40.1210  158.4840    0.9690 N   0  0  0  0  0  0  0  0  0  0  0  0
  -38.6970  158.5430    0.6080 C   0  0  0  0  0  0  0  0  0  0  0  0
  -38.3280  158.0560   -0.7890 C   0  0  0  0  0  0  0  0  0  0  0  0
  -40.9610  159.4820    0.2720 C   0  0  0  0  0  0  0  0  0  0  0  0
  -40.3180  160.8720    0.1010 C   0  0  0  0  0  0  0  0  0  0  0  0
  -40.0350  161.1820   -1.2880 N   0  0  0  0  0  0  0  0  0  0  0  0
  -39.3110  162.2950   -1.6540 C   0  0  0  0  0  0  0  0  0  0  0  0
  -38.9010  163.1190   -0.8440 O   0  0  0  0  0  0  0  0  0  0  0  0
  -39.0090  162.3800   -3.0880 C   0  0  0  0  0  0  0  0  0  0  0  0
  -38.9020  161.3330   -3.9940 C   0  0  0  0  0  0  0  0  0  0  0  0
  -39.0890  159.8640   -3.8570 C   0  0  0  0  0  0  0  0  0  0  0  0
  -38.6030  161.8730   -5.2220 N   0  0  0  0  0  0  0  0  0  0  0  0
  -38.5580  163.2420   -5.1660 C   0  0  0  0  0  0  0  0  0  0  0  0
  -38.3140  164.0460   -6.3160 C   0  0  0  0  0  0  0  0  0  0  0  0
  -38.0240  163.6780   -7.5760 C   0  0  0  0  0  0  0  0  0  0  0  0
  -37.8570  162.3120   -8.2010 C   0  0  0  0  0  0  0  0  0  0  0  0
  -37.9670  161.2210   -7.6740 O   0  0  0  0  0  0  0  0  0  0  0  0
  -37.5530  162.5470   -9.5300 N   0  0  0  0  0  0  0  0  0  0  0  0
  -37.5130  163.9060   -9.8120 C   0  0  0  0  0  0  0  0  0  0  0  0
  -37.2430  164.4870  -11.0370 C   0  0  0  0  0  0  0  0  0  0  0  0
  -37.2550  165.8810  -11.0980 C   0  0  0  0  0  0  0  0  0  0  0  0
  -37.5340  166.6360   -9.9490 C   0  0  0  0  0  0  0  0  0  0  0  0
  -37.5390  167.9720  -10.0370 F   0  0  0  0  0  0  0  0  0  0  0  0
  -37.8060  166.0360   -8.7190 C   0  0  0  0  0  0  0  0  0  0  0  0
  -37.7920  164.6530   -8.6620 C   0  0  0  0  0  0  0  0  0  0  0  0
  -38.8040  163.5930   -3.8410 C   0  0  0  0  0  0  0  0  0  0  0  0
  -38.8580  164.9710   -3.2680 C   0  0  0  0  0  0  0  0  0  0  0  0
  -41.9255  158.2854    3.8990 H   0  0  0  0  0  0  0  0  0  0  0  0
  -42.4612  159.1057    2.3934 H   0  0  0  0  0  0  0  0  0  0  0  0
  -42.1620  157.3345    2.3934 H   0  0  0  0  0  0  0  0  0  0  0  0
  -40.0885  159.5459    2.7782 H   0  0  0  0  0  0  0  0  0  0  0  0
  -39.7855  157.7434    2.8820 H   0  0  0  0  0  0  0  0  0  0  0  0
  -38.3741  159.5911    0.6926 H   0  0  0  0  0  0  0  0  0  0  0  0
  -38.1927  157.8520    1.2995 H   0  0  0  0  0  0  0  0  0  0  0  0
  -37.6654  157.1816   -0.7094 H   0  0  0  0  0  0  0  0  0  0  0  0
  -39.2420  157.7752   -1.3327 H   0  0  0  0  0  0  0  0  0  0  0  0
  -37.8103  158.8600   -1.3327 H   0  0  0  0  0  0  0  0  0  0  0  0
  -41.1966  159.0901   -0.7284 H   0  0  0  0  0  0  0  0  0  0  0  0
  -41.8487  159.6306    0.9043 H   0  0  0  0  0  0  0  0  0  0  0  0
  -41.0067  161.6315    0.4995 H   0  0  0  0  0  0  0  0  0  0  0  0
  -39.3626  160.8696    0.6461 H   0  0  0  0  0  0  0  0  0  0  0  0
  -40.1450  160.4540   -1.9780 H   0  0  0  0  0  0  0  0  0  0  0  0
  -39.1230  159.5966   -2.7905 H   0  0  0  0  0  0  0  0  0  0  0  0
  -40.0321  159.5678   -4.3396 H   0  0  0  0  0  0  0  0  0  0  0  0
  -38.2502  159.3410   -4.3396 H   0  0  0  0  0  0  0  0  0  0  0  0
  -38.4640  161.3200   -6.0630 H   0  0  0  0  0  0  0  0  0  0  0  0
  -38.3715  165.1316   -6.1479 H   0  0  0  0  0  0  0  0  0  0  0  0
  -37.3920  161.8020  -10.1910 H   0  0  0  0  0  0  0  0  0  0  0  0
  -37.0278  163.8762  -11.9261 H   0  0  0  0  0  0  0  0  0  0  0  0
  -37.0450  166.3897  -12.0504 H   0  0  0  0  0  0  0  0  0  0  0  0
  -38.0238  166.6406   -7.8262 H   0  0  0  0  0  0  0  0  0  0  0  0
  -38.8557  164.9117   -2.1696 H   0  0  0  0  0  0  0  0  0  0  0  0
  -37.9816  165.5433   -3.6062 H   0  0  0  0  0  0  0  0  0  0  0  0
  -39.7765  165.4730   -3.6062 H   0  0  0  0  0  0  0  0  0  0  0  0
  1  2  1  0
  2  3  1  0
  3  4  1  0
  4  5  1  0
  3  6  1  0
  6  7  1  0
  7  8  1  0
  8  9  1  0
  9 10  2  0
  9 11  1  0
 11 12  2  0
 12 13  1  0
 12 14  1  0
 14 15  1  0
 15 16  1  0
 16 17  2  0
 17 18  1  0
 18 19  2  0
 18 20  1  0
 20 21  1  0
 21 22  1  0
 22 23  2  0
 23 24  1  0
 24 25  1  0
 24 26  2  0
 26 27  1  0
 15 28  2  0
 28 29  1  0
 28 11  1  0
 27 17  1  0
 27 21  2  0
  1 30  1  0
  1 31  1  0
  1 32  1  0
  2 33  1  0
  2 34  1  0
  4 35  1  0
  4 36  1  0
  5 37  1  0
  5 38  1  0
  5 39  1  0
  6 40  1  0
  6 41  1  0
  7 42  1  0
  7 43  1  0
  8 44  1  0
 13 45  1  0
 13 46  1  0
 13 47  1  0
 14 48  1  0
 16 49  1  0
 20 50  1  0
 22 51  1  0
 23 52  1  0
 26 53  1  0
 29 54  1  0
 29 55  1  0
 29 56  1  0
M  END
>  <meeko>  (7) 
{"is_sidechain": false}

>  <vina_affinity_kcal_mol>  (7) 
-9.017

>  <pose_rank>  (7) 
7

$$$$

     RDKit          3D

 56 58  0  0  0  0  0  0  0  0999 V2000
  -38.3950  158.1260   -1.1370 C   0  0  0  0  0  0  0  0  0  0  0  0
  -39.4370  158.8580   -0.2980 C   0  0  0  0  0  0  0  0  0  0  0  0
  -39.5800  158.3340    1.0720 N   0  0  0  0  0  0  0  0  0  0  0  0
  -40.4140  159.1690    1.9500 C   0  0  0  0  0  0  0  0  0  0  0  0
  -41.7040  158.5370    2.4650 C   0  0  0  0  0  0  0  0  0  0  0  0
  -38.2450  158.0240    1.6270 C   0  0  0  0  0  0  0  0  0  0  0  0
  -38.1320  158.1360    3.1600 C   0  0  0  0  0  0  0  0  0  0  0  0
  -37.2180  157.1580    3.7190 N   0  0  0  0  0  0  0  0  0  0  0  0
  -36.6030  157.3470    4.9370 C   0  0  0  0  0  0  0  0  0  0  0  0
  -36.7460  158.3660    5.6040 O   0  0  0  0  0  0  0  0  0  0  0  0
  -35.8180  156.1990    5.4070 C   0  0  0  0  0  0  0  0  0  0  0  0
  -34.4590  155.9710    5.2250 C   0  0  0  0  0  0  0  0  0  0  0  0
  -33.3860  156.7710    4.5770 C   0  0  0  0  0  0  0  0  0  0  0  0
  -34.1530  154.7750    5.8280 N   0  0  0  0  0  0  0  0  0  0  0  0
  -35.2510  154.2330    6.4440 C   0  0  0  0  0  0  0  0  0  0  0  0
  -35.1880  153.0170    7.1830 C   0  0  0  0  0  0  0  0  0  0  0  0
  -35.8040  151.8430    6.9600 C   0  0  0  0  0  0  0  0  0  0  0  0
  -36.7570  151.4100    5.8700 C   0  0  0  0  0  0  0  0  0  0  0  0
  -37.1710  152.0570    4.9270 O   0  0  0  0  0  0  0  0  0  0  0  0
  -37.0730  150.0930    6.1550 N   0  0  0  0  0  0  0  0  0  0  0  0
  -36.4240  149.6490    7.2990 C   0  0  0  0  0  0  0  0  0  0  0  0
  -36.5130  148.3900    7.8620 C   0  0  0  0  0  0  0  0  0  0  0  0
  -35.7700  148.1540    9.0200 C   0  0  0  0  0  0  0  0  0  0  0  0
  -34.9740  149.1710    9.5680 C   0  0  0  0  0  0  0  0  0  0  0  0
  -34.2720  148.9180   10.6790 F   0  0  0  0  0  0  0  0  0  0  0  0
  -34.8930  150.4380    8.9880 C   0  0  0  0  0  0  0  0  0  0  0  0
  -35.6310  150.6680    7.8400 C   0  0  0  0  0  0  0  0  0  0  0  0
  -36.3130  155.0980    6.1960 C   0  0  0  0  0  0  0  0  0  0  0  0
  -37.7260  154.9470    6.6550 C   0  0  0  0  0  0  0  0  0  0  0  0
  -37.6776  157.6220   -0.4727 H   0  0  0  0  0  0  0  0  0  0  0  0
  -38.8942  157.3791   -1.7717 H   0  0  0  0  0  0  0  0  0  0  0  0
  -37.8616  158.8489   -1.7717 H   0  0  0  0  0  0  0  0  0  0  0  0
  -39.1478  159.9174   -0.2346 H   0  0  0  0  0  0  0  0  0  0  0  0
  -40.4064  158.7124   -0.7970 H   0  0  0  0  0  0  0  0  0  0  0  0
  -39.8059  159.4469    2.8235 H   0  0  0  0  0  0  0  0  0  0  0  0
  -40.7335  160.0178    1.3276 H   0  0  0  0  0  0  0  0  0  0  0  0
  -41.6996  158.5391    3.5650 H   0  0  0  0  0  0  0  0  0  0  0  0
  -42.5663  159.1147    2.1006 H   0  0  0  0  0  0  0  0  0  0  0  0
  -41.7760  157.5016    2.1006 H   0  0  0  0  0  0  0  0  0  0  0  0
  -37.9879  156.9935    1.3408 H   0  0  0  0  0  0  0  0  0  0  0  0
  -37.5588  158.7778    1.2134 H   0  0  0  0  0  0  0  0  0  0  0  0
  -37.7712  159.1433    3.4152 H   0  0  0  0  0  0  0  0  0  0  0  0
  -39.1286  157.9458    3.5850 H   0  0  0  0  0  0  0  0  0  0  0  0
  -37.2240  156.2210    3.3440 H   0  0  0  0  0  0  0  0  0  0  0  0
  -32.7591  157.2384    5.3507 H   0  0  0  0  0  0  0  0  0  0  0  0
  -32.7657  156.1132    3.9505 H   0  0  0  0  0  0  0  0  0  0  0  0
  -33.8394  157.5532    3.9505 H   0  0  0  0  0  0  0  0  0  0  0  0
  -33.2210  154.3690    5.8350 H   0  0  0  0  0  0  0  0  0  0  0  0
  -34.5374  153.0423    8.0696 H   0  0  0  0  0  0  0  0  0  0  0  0
  -37.6970  149.5470    5.5810 H   0  0  0  0  0  0  0  0  0  0  0  0
  -37.1432  147.6064    7.4161 H   0  0  0  0  0  0  0  0  0  0  0  0
  -35.8088  147.1672    9.5045 H   0  0  0  0  0  0  0  0  0  0  0  0
  -34.2645  151.2263    9.4280 H   0  0  0  0  0  0  0  0  0  0  0  0
  -37.7560  154.9438    7.7546 H   0  0  0  0  0  0  0  0  0  0  0  0
  -38.3269  155.7861    6.2743 H   0  0  0  0  0  0  0  0  0  0  0  0
  -38.1360  153.9999    6.2743 H   0  0  0  0  0  0  0  0  0  0  0  0
  1  2  1  0
  2  3  1  0
  3  4  1  0
  4  5  1  0
  3  6  1  0
  6  7  1  0
  7  8  1  0
  8  9  1  0
  9 10  2  0
  9 11  1  0
 11 12  2  0
 12 13  1  0
 12 14  1  0
 14 15  1  0
 15 16  1  0
 16 17  2  0
 17 18  1  0
 18 19  2  0
 18 20  1  0
 20 21  1  0
 21 22  1  0
 22 23  2  0
 23 24  1  0
 24 25  1  0
 24 26  2  0
 26 27  1  0
 15 28  2  0
 28 29  1  0
 28 11  1  0
 27 17  1  0
 27 21  2  0
  1 30  1  0
  1 31  1  0
  1 32  1  0
  2 33  1  0
  2 34  1  0
  4 35  1  0
  4 36  1  0
  5 37  1  0
  5 38  1  0
  5 39  1  0
  6 40  1  0
  6 41  1  0
  7 42  1  0
  7 43  1  0
  8 44  1  0
 13 45  1  0
 13 46  1  0
 13 47  1  0
 14 48  1  0
 16 49  1  0
 20 50  1  0
 22 51  1  0
 23 52  1  0
 26 53  1  0
 29 54  1  0
 29 55  1  0
 29 56  1  0
M  END
>  <meeko>  (8) 
{"is_sidechain": false}

>  <vina_affinity_kcal_mol>  (8) 
-8.304

>  <pose_rank>  (8) 
8

$$$$

     RDKit          3D

 56 58  0  0  0  0  0  0  0  0999 V2000
  -34.9860  160.9900    9.9650 C   0  0  0  0  0  0  0  0  0  0  0  0
  -35.7870  162.0870    9.2700 C   0  0  0  0  0  0  0  0  0  0  0  0
  -37.2350  161.8220    9.2040 N   0  0  0  0  0  0  0  0  0  0  0  0
  -37.9850  162.2950   10.3770 C   0  0  0  0  0  0  0  0  0  0  0  0
  -38.1780  163.8040   10.4970 C   0  0  0  0  0  0  0  0  0  0  0  0
  -37.4650  160.3980    8.8760 C   0  0  0  0  0  0  0  0  0  0  0  0
  -37.1000  159.9930    7.4330 C   0  0  0  0  0  0  0  0  0  0  0  0
  -36.5610  158.6480    7.3580 N   0  0  0  0  0  0  0  0  0  0  0  0
  -36.4130  157.9880    6.1580 C   0  0  0  0  0  0  0  0  0  0  0  0
  -36.7660  158.4680    5.0860 O   0  0  0  0  0  0  0  0  0  0  0  0
  -35.7310  156.6920    6.2560 C   0  0  0  0  0  0  0  0  0  0  0  0
  -34.4240  156.3930    5.8910 C   0  0  0  0  0  0  0  0  0  0  0  0
  -33.3170  157.2270    5.3530 C   0  0  0  0  0  0  0  0  0  0  0  0
  -34.2130  155.0610    6.1520 N   0  0  0  0  0  0  0  0  0  0  0  0
  -35.3170  154.4850    6.7230 C   0  0  0  0  0  0  0  0  0  0  0  0
  -35.3410  153.1210    7.1360 C   0  0  0  0  0  0  0  0  0  0  0  0
  -36.0820  152.0980    6.6800 C   0  0  0  0  0  0  0  0  0  0  0  0
  -37.1300  152.0350    5.5920 C   0  0  0  0  0  0  0  0  0  0  0  0
  -37.5250  152.9310    4.8700 O   0  0  0  0  0  0  0  0  0  0  0  0
  -37.5630  150.7210    5.5700 N   0  0  0  0  0  0  0  0  0  0  0  0
  -36.9030  149.9500    6.5170 C   0  0  0  0  0  0  0  0  0  0  0  0
  -37.0900  148.6020    6.7600 C   0  0  0  0  0  0  0  0  0  0  0  0
  -36.3160  148.0220    7.7650 C   0  0  0  0  0  0  0  0  0  0  0  0
  -35.3930  148.7970    8.4830 C   0  0  0  0  0  0  0  0  0  0  0  0
  -34.6630  148.2140    9.4420 F   0  0  0  0  0  0  0  0  0  0  0  0
  -35.2140  150.1570    8.2270 C   0  0  0  0  0  0  0  0  0  0  0  0
  -35.9850  150.7300    7.2290 C   0  0  0  0  0  0  0  0  0  0  0  0
  -36.2900  155.4790    6.8000 C   0  0  0  0  0  0  0  0  0  0  0  0
  -37.6740  155.3480    7.3450 C   0  0  0  0  0  0  0  0  0  0  0  0
  -35.0721  161.1079   11.0553 H   0  0  0  0  0  0  0  0  0  0  0  0
  -35.3796  160.0060    9.6704 H   0  0  0  0  0  0  0  0  0  0  0  0
  -33.9289  161.0653    9.6704 H   0  0  0  0  0  0  0  0  0  0  0  0
  -35.6323  163.0281    9.8180 H   0  0  0  0  0  0  0  0  0  0  0  0
  -35.4250  162.1364    8.2324 H   0  0  0  0  0  0  0  0  0  0  0  0
  -38.9822  161.8317   10.3455 H   0  0  0  0  0  0  0  0  0  0  0  0
  -37.3763  162.0086   11.2473 H   0  0  0  0  0  0  0  0  0  0  0  0
  -38.2140  164.0857   11.5597 H   0  0  0  0  0  0  0  0  0  0  0  0
  -37.3387  164.3210   10.0089 H   0  0  0  0  0  0  0  0  0  0  0  0
  -39.1204  164.0931   10.0089 H   0  0  0  0  0  0  0  0  0  0  0  0
  -36.8619  159.7878    9.5644 H   0  0  0  0  0  0  0  0  0  0  0  0
  -38.5475  160.2307    8.9772 H   0  0  0  0  0  0  0  0  0  0  0  0
  -38.0056  160.0463    6.8109 H   0  0  0  0  0  0  0  0  0  0  0  0
  -36.3249  160.6865    7.0748 H   0  0  0  0  0  0  0  0  0  0  0  0
  -36.0550  158.2840    8.1520 H   0  0  0  0  0  0  0  0  0  0  0  0
  -32.7443  157.6585    6.1871 H   0  0  0  0  0  0  0  0  0  0  0  0
  -32.6534  156.6024    4.7369 H   0  0  0  0  0  0  0  0  0  0  0  0
  -33.7343  158.0371    4.7369 H   0  0  0  0  0  0  0  0  0  0  0  0
  -33.3350  154.5820    5.9680 H   0  0  0  0  0  0  0  0  0  0  0  0
  -34.6477  152.8680    7.9516 H   0  0  0  0  0  0  0  0  0  0  0  0
  -38.2690  150.3910    4.9280 H   0  0  0  0  0  0  0  0  0  0  0  0
  -37.8186  148.0116    6.1850 H   0  0  0  0  0  0  0  0  0  0  0  0
  -36.4298  146.9525    7.9956 H   0  0  0  0  0  0  0  0  0  0  0  0
  -34.4864  150.7529    8.7975 H   0  0  0  0  0  0  0  0  0  0  0  0
  -37.6370  155.3515    8.4444 H   0  0  0  0  0  0  0  0  0  0  0  0
  -38.2869  156.1922    6.9961 H   0  0  0  0  0  0  0  0  0  0  0  0
  -38.1176  154.4039    6.9961 H   0  0  0  0  0  0  0  0  0  0  0  0
  1  2  1  0
  2  3  1  0
  3  4  1  0
  4  5  1  0
  3  6  1  0
  6  7  1  0
  7  8  1  0
  8  9  1  0
  9 10  2  0
  9 11  1  0
 11 12  2  0
 12 13  1  0
 12 14  1  0
 14 15  1  0
 15 16  1  0
 16 17  2  0
 17 18  1  0
 18 19  2  0
 18 20  1  0
 20 21  1  0
 21 22  1  0
 22 23  2  0
 23 24  1  0
 24 25  1  0
 24 26  2  0
 26 27  1  0
 15 28  2  0
 28 29  1  0
 28 11  1  0
 27 17  1  0
 27 21  2  0
  1 30  1  0
  1 31  1  0
  1 32  1  0
  2 33  1  0
  2 34  1  0
  4 35  1  0
  4 36  1  0
  5 37  1  0
  5 38  1  0
  5 39  1  0
  6 40  1  0
  6 41  1  0
  7 42  1  0
  7 43  1  0
  8 44  1  0
 13 45  1  0
 13 46  1  0
 13 47  1  0
 14 48  1  0
 16 49  1  0
 20 50  1  0
 22 51  1  0
 23 52  1  0
 26 53  1  0
 29 54  1  0
 29 55  1  0
 29 56  1  0
M  END
>  <meeko>  (9) 
{"is_sidechain": false}

>  <vina_affinity_kcal_mol>  (9) 
-7.723

>  <pose_rank>  (9) 
9

$$$$

     RDKit          3D

 56 58  0  0  0  0  0  0  0  0999 V2000
  -33.9350  152.9320    5.0660 C   0  0  0  0  0  0  0  0  0  0  0  0
  -34.2810  153.9040    6.1900 C   0  0  0  0  0  0  0  0  0  0  0  0
  -35.6180  154.5110    6.0660 N   0  0  0  0  0  0  0  0  0  0  0  0
  -35.6110  155.9820    6.0680 C   0  0  0  0  0  0  0  0  0  0  0  0
  -34.3700  156.6560    6.6450 C   0  0  0  0  0  0  0  0  0  0  0  0
  -36.5300  153.9120    7.0640 C   0  0  0  0  0  0  0  0  0  0  0  0
  -37.7840  153.2310    6.4780 C   0  0  0  0  0  0  0  0  0  0  0  0
  -37.4510  152.1610    5.5570 N   0  0  0  0  0  0  0  0  0  0  0  0
  -38.2010  151.0090    5.4760 C   0  0  0  0  0  0  0  0  0  0  0  0
  -39.1640  150.7890    6.2040 O   0  0  0  0  0  0  0  0  0  0  0  0
  -37.7990  150.0950    4.4010 C   0  0  0  0  0  0  0  0  0  0  0  0
  -38.5060  149.7850    3.2450 C   0  0  0  0  0  0  0  0  0  0  0  0
  -39.8040  150.2670    2.7030 C   0  0  0  0  0  0  0  0  0  0  0  0
  -37.7560  148.8840    2.5270 N   0  0  0  0  0  0  0  0  0  0  0  0
  -36.5590  148.6300    3.1440 C   0  0  0  0  0  0  0  0  0  0  0  0
  -35.5760  147.7670    2.5790 C   0  0  0  0  0  0  0  0  0  0  0  0
  -35.1020  147.7120    1.3230 C   0  0  0  0  0  0  0  0  0  0  0  0
  -35.4350  148.5280    0.0960 C   0  0  0  0  0  0  0  0  0  0  0  0
  -36.2250  149.4470   -0.0090 O   0  0  0  0  0  0  0  0  0  0  0  0
  -34.6390  148.0190   -0.9160 N   0  0  0  0  0  0  0  0  0  0  0  0
  -33.8410  146.9770   -0.4620 C   0  0  0  0  0  0  0  0  0  0  0  0
  -32.9310  146.2500   -1.2060 C   0  0  0  0  0  0  0  0  0  0  0  0
  -32.2290  145.2410   -0.5460 C   0  0  0  0  0  0  0  0  0  0  0  0
  -32.4570  144.9960    0.8160 C   0  0  0  0  0  0  0  0  0  0  0  0
  -31.7690  144.0210    1.4230 F   0  0  0  0  0  0  0  0  0  0  0  0
  -33.3780  145.7390    1.5550 C   0  0  0  0  0  0  0  0  0  0  0  0
  -34.0740  146.7390    0.8980 C   0  0  0  0  0  0  0  0  0  0  0  0
  -36.5550  149.3700    4.3240 C   0  0  0  0  0  0  0  0  0  0  0  0
  -35.4700  149.4290    5.3490 C   0  0  0  0  0  0  0  0  0  0  0  0
  -33.5956  151.9786    5.4972 H   0  0  0  0  0  0  0  0  0  0  0  0
  -34.8261  152.7571    4.4452 H   0  0  0  0  0  0  0  0  0  0  0  0
  -33.1338  153.3595    4.4452 H   0  0  0  0  0  0  0  0  0  0  0  0
  -34.2354  153.3595    7.1447 H   0  0  0  0  0  0  0  0  0  0  0  0
  -33.5518  154.7258    6.1363 H   0  0  0  0  0  0  0  0  0  0  0  0
  -35.7200  156.3181    5.0263 H   0  0  0  0  0  0  0  0  0  0  0  0
  -36.4373  156.2761    6.7319 H   0  0  0  0  0  0  0  0  0  0  0  0
  -34.4164  156.6308    7.7437 H   0  0  0  0  0  0  0  0  0  0  0  0
  -33.4707  156.1224    6.3037 H   0  0  0  0  0  0  0  0  0  0  0  0
  -34.3280  157.7009    6.3037 H   0  0  0  0  0  0  0  0  0  0  0  0
  -35.9659  153.1572    7.6315 H   0  0  0  0  0  0  0  0  0  0  0  0
  -36.8946  154.7439    7.6845 H   0  0  0  0  0  0  0  0  0  0  0  0
  -38.3786  152.8141    7.3042 H   0  0  0  0  0  0  0  0  0  0  0  0
  -38.3493  153.9915    5.9193 H   0  0  0  0  0  0  0  0  0  0  0  0
  -36.8230  152.3590    4.7920 H   0  0  0  0  0  0  0  0  0  0  0  0
  -40.4785  150.5175    3.5351 H   0  0  0  0  0  0  0  0  0  0  0  0
  -39.6342  151.1620    2.0865 H   0  0  0  0  0  0  0  0  0  0  0  0
  -40.2595  149.4781    2.0865 H   0  0  0  0  0  0  0  0  0  0  0  0
  -38.0490  148.4880    1.6380 H   0  0  0  0  0  0  0  0  0  0  0  0
  -35.1397  147.0361    3.2757 H   0  0  0  0  0  0  0  0  0  0  0  0
  -34.6550  148.3840   -1.8560 H   0  0  0  0  0  0  0  0  0  0  0  0
  -32.7671  146.4582   -2.2736 H   0  0  0  0  0  0  0  0  0  0  0  0
  -31.4938  144.6352   -1.0960 H   0  0  0  0  0  0  0  0  0  0  0  0
  -33.5454  145.5370    2.6233 H   0  0  0  0  0  0  0  0  0  0  0  0
  -35.9143  149.4048    6.3550 H   0  0  0  0  0  0  0  0  0  0  0  0
  -34.7996  148.5660    5.2234 H   0  0  0  0  0  0  0  0  0  0  0  0
  -34.8971  150.3596    5.2234 H   0  0  0  0  0  0  0  0  0  0  0  0
  1  2  1  0
  2  3  1  0
  3  4  1  0
  4  5  1  0
  3  6  1  0
  6  7  1  0
  7  8  1  0
  8  9  1  0
  9 10  2  0
  9 11  1  0
 11 12  2  0
 12 13  1  0
 12 14  1  0
 14 15  1  0
 15 16  1  0
 16 17  2  0
 17 18  1  0
 18 19  2  0
 18 20  1  0
 20 21  1  0
 21 22  1  0
 22 23  2  0
 23 24  1  0
 24 25  1  0
 24 26  2  0
 26 27  1  0
 15 28  2  0
 28 29  1  0
 28 11  1  0
 27 17  1  0
 27 21  2  0
  1 30  1  0
  1 31  1  0
  1 32  1  0
  2 33  1  0
  2 34  1  0
  4 35  1  0
  4 36  1  0
  5 37  1  0
  5 38  1  0
  5 39  1  0
  6 40  1  0
  6 41  1  0
  7 42  1  0
  7 43  1  0
  8 44  1  0
 13 45  1  0
 13 46  1  0
 13 47  1  0
 14 48  1  0
 16 49  1  0
 20 50  1  0
 22 51  1  0
 23 52  1  0
 26 53  1  0
 29 54  1  0
 29 55  1  0
 29 56  1  0
M  END
>  <meeko>  (10) 
{"is_sidechain": false}

>  <vina_affinity_kcal_mol>  (10) 
-7.646

>  <pose_rank>  (10) 
10

$$$$
