
     RDKit          3D

 68 72  0  0  0  0  0  0  0  0999 V2000
   -5.2482    0.3998    4.4277 C   0  0  0  0  0  0  0  0  0  0  0  0
   -3.8714    0.4515    3.8194 C   0  0  0  0  0  0  0  0  0  0  0  0
   -2.7692    0.5891    4.6796 C   0  0  0  0  0  0  0  0  0  0  0  0
   -1.4682    0.6492    4.1794 C   0  0  0  0  0  0  0  0  0  0  0  0
   -1.2453    0.5711    2.8106 C   0  0  0  0  0  0  0  0  0  0  0  0
    0.0326    0.6326    2.2145 N   0  0  0  0  0  0  0  0  0  0  0  0
    1.2578    0.6948    2.8526 C   0  0  0  0  0  0  0  0  0  0  0  0
    1.4639    0.6358    4.0589 O   0  0  0  0  0  0  0  0  0  0  0  0
    2.4317    0.8023    1.9396 C   0  0  0  0  0  0  0  0  0  0  0  0
    2.3773    1.5434    0.7528 C   0  0  0  0  0  0  0  0  0  0  0  0
    3.4994    1.6135   -0.0766 C   0  0  0  0  0  0  0  0  0  0  0  0
    4.6886    0.9537    0.2704 C   0  0  0  0  0  0  0  0  0  0  0  0
    5.9059    1.0396   -0.6310 C   0  0  0  0  0  0  0  0  0  0  0  0
    5.6593    0.5186   -1.9899 N   0  0  0  0  0  0  0  0  0  0  0  0
    5.4128   -0.9381   -1.9848 C   0  0  0  0  0  0  0  0  0  0  0  0
    6.6217   -1.8212   -1.5726 C   0  0  0  0  0  0  0  0  0  0  0  0
    7.9370   -1.1860   -1.7843 N   0  0  0  0  0  0  0  0  0  0  0  0
    9.0014   -2.1792   -1.8660 C   0  0  0  0  0  0  0  0  0  0  0  0
    7.9018   -0.3184   -2.9678 C   0  0  0  0  0  0  0  0  0  0  0  0
    6.8229    0.7965   -2.8662 C   0  0  0  0  0  0  0  0  0  0  0  0
    4.7414    0.2325    1.4715 C   0  0  0  0  0  0  0  0  0  0  0  0
    3.6214    0.1607    2.3031 C   0  0  0  0  0  0  0  0  0  0  0  0
   -2.3464    0.4354    1.9502 C   0  0  0  0  0  0  0  0  0  0  0  0
   -3.6676    0.3667    2.4232 C   0  0  0  0  0  0  0  0  0  0  0  0
   -4.7689    0.2412    1.5624 N   0  0  0  0  0  0  0  0  0  0  0  0
   -4.9334    0.1979    0.1808 C   0  0  0  0  0  0  0  0  0  0  0  0
   -3.9091    0.3419   -0.6693 N   0  0  0  0  0  0  0  0  0  0  0  0
   -4.1860    0.2909   -1.9821 C   0  0  0  0  0  0  0  0  0  0  0  0
   -5.4494    0.1071   -2.4845 C   0  0  0  0  0  0  0  0  0  0  0  0
   -6.4579   -0.0287   -1.5531 C   0  0  0  0  0  0  0  0  0  0  0  0
   -7.8701   -0.2372   -1.9192 C   0  0  0  0  0  0  0  0  0  0  0  0
   -8.7442   -0.9670   -1.0986 C   0  0  0  0  0  0  0  0  0  0  0  0
  -10.0760   -1.1593   -1.4652 C   0  0  0  0  0  0  0  0  0  0  0  0
  -10.5128   -0.6104   -2.6565 C   0  0  0  0  0  0  0  0  0  0  0  0
   -9.7211    0.1048   -3.4807 N   0  0  0  0  0  0  0  0  0  0  0  0
   -8.4329    0.2769   -3.0893 C   0  0  0  0  0  0  0  0  0  0  0  0
   -6.2001    0.0094   -0.2251 N   0  0  0  0  0  0  0  0  0  0  0  0
   -5.8642    1.2197    4.0443 H   0  0  0  0  0  0  0  0  0  0  0  0
   -5.7272   -0.5581    4.2008 H   0  0  0  0  0  0  0  0  0  0  0  0
   -5.2133    0.4995    5.5179 H   0  0  0  0  0  0  0  0  0  0  0  0
   -2.9138    0.6548    5.7562 H   0  0  0  0  0  0  0  0  0  0  0  0
   -0.6532    0.7628    4.8869 H   0  0  0  0  0  0  0  0  0  0  0  0
    0.0425    0.5593    1.2055 H   0  0  0  0  0  0  0  0  0  0  0  0
    1.4835    2.0932    0.4717 H   0  0  0  0  0  0  0  0  0  0  0  0
    3.4522    2.1866   -1.0010 H   0  0  0  0  0  0  0  0  0  0  0  0
    6.1585    2.1073   -0.6909 H   0  0  0  0  0  0  0  0  0  0  0  0
    6.7649    0.5575   -0.1500 H   0  0  0  0  0  0  0  0  0  0  0  0
    4.5427   -1.1936   -1.3689 H   0  0  0  0  0  0  0  0  0  0  0  0
    5.1212   -1.2176   -3.0070 H   0  0  0  0  0  0  0  0  0  0  0  0
    6.5360   -2.0629   -0.5063 H   0  0  0  0  0  0  0  0  0  0  0  0
    6.5458   -2.7657   -2.1271 H   0  0  0  0  0  0  0  0  0  0  0  0
    8.8812   -2.8457   -2.7276 H   0  0  0  0  0  0  0  0  0  0  0  0
    9.0267   -2.7905   -0.9572 H   0  0  0  0  0  0  0  0  0  0  0  0
    9.9782   -1.6895   -1.9445 H   0  0  0  0  0  0  0  0  0  0  0  0
    7.7050   -0.9212   -3.8649 H   0  0  0  0  0  0  0  0  0  0  0  0
    8.8767    0.1634   -3.1115 H   0  0  0  0  0  0  0  0  0  0  0  0
    6.4354    0.9732   -3.8779 H   0  0  0  0  0  0  0  0  0  0  0  0
    7.3031    1.7399   -2.5755 H   0  0  0  0  0  0  0  0  0  0  0  0
    5.6560   -0.2768    1.7681 H   0  0  0  0  0  0  0  0  0  0  0  0
    3.6764   -0.3985    3.2352 H   0  0  0  0  0  0  0  0  0  0  0  0
   -2.1602    0.3750    0.8834 H   0  0  0  0  0  0  0  0  0  0  0  0
   -5.6752    0.1257    1.9887 H   0  0  0  0  0  0  0  0  0  0  0  0
   -3.3301    0.4035   -2.6412 H   0  0  0  0  0  0  0  0  0  0  0  0
   -5.6166    0.0565   -3.5515 H   0  0  0  0  0  0  0  0  0  0  0  0
   -8.3860   -1.3956   -0.1644 H   0  0  0  0  0  0  0  0  0  0  0  0
  -10.7523   -1.7243   -0.8336 H   0  0  0  0  0  0  0  0  0  0  0  0
  -11.5401   -0.7323   -2.9876 H   0  0  0  0  0  0  0  0  0  0  0  0
   -7.8523    0.8830   -3.7799 H   0  0  0  0  0  0  0  0  0  0  0  0
  1  2  1  0
  2  3  1  0
  3  4  2  0
  4  5  1  0
  5  6  1  0
  6  7  1  0
  7  8  2  0
  7  9  1  0
  9 10  1  0
 10 11  2  0
 11 12  1  0
 12 13  1  0
 13 14  1  0
 14 15  1  0
 15 16  1  0
 16 17  1  0
 17 18  1  0
 17 19  1  0
 19 20  1  0
 12 21  2  0
 21 22  1  0
  5 23  2  0
 23 24  1  0
 24 25  1  0
 25 26  1  0
 26 27  2  0
 27 28  1  0
 28 29  2  0
 29 30  1  0
 30 31  1  0
 31 32  1  0
 32 33  2  0
 33 34  1  0
 34 35  2  0
 35 36  1  0
 30 37  2  0
 24  2  2  0
 37 26  1  0
 22  9  2  0
 36 31  2  0
 20 14  1  0
  1 38  1  0
  1 39  1  0
  1 40  1  0
  3 41  1  0
  4 42  1  0
  6 43  1  0
 10 44  1  0
 11 45  1  0
 13 46  1  0
 13 47  1  0
 15 48  1  0
 15 49  1  0
 16 50  1  0
 16 51  1  0
 18 52  1  0
 18 53  1  0
 18 54  1  0
 19 55  1  0
 19 56  1  0
 20 57  1  0
 20 58  1  0
 21 59  1  0
 22 60  1  0
 23 61  1  0
 25 62  1  0
 28 63  1  0
 29 64  1  0
 32 65  1  0
 33 66  1  0
 34 67  1  0
 36 68  1  0
M  END
$$$$
