
     RDKit          3D

 68 72  0  0  0  0  0  0  0  0999 V2000
   -9.9950    6.4540  -18.1100 C   0  0  0  0  0  0  0  0  0  0  0  0
  -10.4230    5.5690  -16.9690 C   0  0  0  0  0  0  0  0  0  0  0  0
  -11.5150    5.9780  -16.1860 C   0  0  0  0  0  0  0  0  0  0  0  0
  -11.9580    5.2060  -15.1100 C   0  0  0  0  0  0  0  0  0  0  0  0
  -11.3190    4.0140  -14.8000 C   0  0  0  0  0  0  0  0  0  0  0  0
  -11.6910    3.1750  -13.7270 N   0  0  0  0  0  0  0  0  0  0  0  0
  -12.9650    2.9370  -13.2460 C   0  0  0  0  0  0  0  0  0  0  0  0
  -14.0180    3.3560  -13.7110 O   0  0  0  0  0  0  0  0  0  0  0  0
  -13.0250    2.0340  -12.0610 C   0  0  0  0  0  0  0  0  0  0  0  0
  -14.2030    1.8660  -11.3220 C   0  0  0  0  0  0  0  0  0  0  0  0
  -14.2150    1.0140  -10.2150 C   0  0  0  0  0  0  0  0  0  0  0  0
  -13.0590    0.3140   -9.8370 C   0  0  0  0  0  0  0  0  0  0  0  0
  -13.0800   -0.6150   -8.6390 C   0  0  0  0  0  0  0  0  0  0  0  0
  -12.9050   -2.0350   -9.0030 N   0  0  0  0  0  0  0  0  0  0  0  0
  -14.0710   -2.5620   -9.7420 C   0  0  0  0  0  0  0  0  0  0  0  0
  -15.3930   -2.6520   -8.9330 C   0  0  0  0  0  0  0  0  0  0  0  0
  -15.2060   -2.7440   -7.4730 N   0  0  0  0  0  0  0  0  0  0  0  0
  -16.3780   -3.3130   -6.8200 C   0  0  0  0  0  0  0  0  0  0  0  0
  -13.9830   -3.4940   -7.1600 C   0  0  0  0  0  0  0  0  0  0  0  0
  -12.7090   -2.8580   -7.7850 C   0  0  0  0  0  0  0  0  0  0  0  0
  -11.8890    0.4720  -10.5960 C   0  0  0  0  0  0  0  0  0  0  0  0
  -11.8750    1.3230  -11.7030 C   0  0  0  0  0  0  0  0  0  0  0  0
  -10.2260    3.6050  -15.5820 C   0  0  0  0  0  0  0  0  0  0  0  0
   -9.7590    4.3570  -16.6740 C   0  0  0  0  0  0  0  0  0  0  0  0
   -8.6610    3.9540  -17.4490 N   0  0  0  0  0  0  0  0  0  0  0  0
   -7.3650    3.5320  -17.1670 C   0  0  0  0  0  0  0  0  0  0  0  0
   -6.3210    4.3700  -17.1640 N   0  0  0  0  0  0  0  0  0  0  0  0
   -5.1140    3.8500  -16.8860 C   0  0  0  0  0  0  0  0  0  0  0  0
   -4.9050    2.5220  -16.6160 C   0  0  0  0  0  0  0  0  0  0  0  0
   -6.0220    1.7140  -16.6420 C   0  0  0  0  0  0  0  0  0  0  0  0
   -5.9770    0.2660  -16.3720 C   0  0  0  0  0  0  0  0  0  0  0  0
   -4.8740   -0.5180  -16.7420 C   0  0  0  0  0  0  0  0  0  0  0  0
   -4.8510   -1.8890  -16.4840 C   0  0  0  0  0  0  0  0  0  0  0  0
   -5.9440   -2.4540  -15.8520 C   0  0  0  0  0  0  0  0  0  0  0  0
   -7.0270   -1.7500  -15.4680 N   0  0  0  0  0  0  0  0  0  0  0  0
   -7.0110   -0.4180  -15.7290 C   0  0  0  0  0  0  0  0  0  0  0  0
   -7.2490    2.2180  -16.9090 N   0  0  0  0  0  0  0  0  0  0  0  0
   -9.5487    7.3768  -17.7108 H   0  0  0  0  0  0  0  0  0  0  0  0
   -9.2533    5.9248  -18.7263 H   0  0  0  0  0  0  0  0  0  0  0  0
  -10.8704    6.7068  -18.7263 H   0  0  0  0  0  0  0  0  0  0  0  0
  -12.0291    6.9209  -16.4240 H   0  0  0  0  0  0  0  0  0  0  0  0
  -12.8144    5.5432  -14.5076 H   0  0  0  0  0  0  0  0  0  0  0  0
  -10.9340    2.6460  -13.3110 H   0  0  0  0  0  0  0  0  0  0  0  0
  -15.1172    2.4041  -11.6129 H   0  0  0  0  0  0  0  0  0  0  0  0
  -15.1405    0.8905   -9.6334 H   0  0  0  0  0  0  0  0  0  0  0  0
  -12.2664   -0.3256   -7.9575 H   0  0  0  0  0  0  0  0  0  0  0  0
  -14.0684   -0.5175   -8.1661 H   0  0  0  0  0  0  0  0  0  0  0  0
  -14.2478   -1.9064  -10.6074 H   0  0  0  0  0  0  0  0  0  0  0  0
  -13.8131   -3.5964  -10.0131 H   0  0  0  0  0  0  0  0  0  0  0  0
  -15.9902   -1.7536   -9.1479 H   0  0  0  0  0  0  0  0  0  0  0  0
  -15.8912   -3.5815   -9.2460 H   0  0  0  0  0  0  0  0  0  0  0  0
  -16.2548   -3.2532   -5.7286 H   0  0  0  0  0  0  0  0  0  0  0  0
  -17.2742   -2.7497   -7.1193 H   0  0  0  0  0  0  0  0  0  0  0  0
  -16.4896   -4.3656   -7.1193 H   0  0  0  0  0  0  0  0  0  0  0  0
  -13.8601   -3.5255   -6.0673 H   0  0  0  0  0  0  0  0  0  0  0  0
  -14.0939   -4.5014   -7.5876 H   0  0  0  0  0  0  0  0  0  0  0  0
  -12.2469   -2.2166   -7.0200 H   0  0  0  0  0  0  0  0  0  0  0  0
  -12.0894   -3.7080   -8.1068 H   0  0  0  0  0  0  0  0  0  0  0  0
  -10.9779   -0.0777  -10.3172 H   0  0  0  0  0  0  0  0  0  0  0  0
  -10.9554    1.4347  -12.2962 H   0  0  0  0  0  0  0  0  0  0  0  0
   -9.7174    2.6625  -15.3308 H   0  0  0  0  0  0  0  0  0  0  0  0
   -8.7920    3.9180  -18.4480 H   0  0  0  0  0  0  0  0  0  0  0  0
   -4.2464    4.5261  -16.8743 H   0  0  0  0  0  0  0  0  0  0  0  0
   -3.9042    2.1243  -16.3917 H   0  0  0  0  0  0  0  0  0  0  0  0
   -4.0158   -0.0455  -17.2422 H   0  0  0  0  0  0  0  0  0  0  0  0
   -3.9868   -2.5041  -16.7754 H   0  0  0  0  0  0  0  0  0  0  0  0
   -5.9283   -3.5356  -15.6522 H   0  0  0  0  0  0  0  0  0  0  0  0
   -7.8832    0.1704  -15.4080 H   0  0  0  0  0  0  0  0  0  0  0  0
  1  2  1  0
  2  3  1  0
  3  4  2  0
  4  5  1  0
  5  6  1  0
  6  7  1  0
  7  8  2  0
  7  9  1  0
  9 10  1  0
 10 11  2  0
 11 12  1  0
 12 13  1  0
 13 14  1  0
 14 15  1  0
 15 16  1  0
 16 17  1  0
 17 18  1  0
 17 19  1  0
 19 20  1  0
 12 21  2  0
 21 22  1  0
  5 23  2  0
 23 24  1  0
 24 25  1  0
 25 26  1  0
 26 27  2  0
 27 28  1  0
 28 29  2  0
 29 30  1  0
 30 31  1  0
 31 32  1  0
 32 33  2  0
 33 34  1  0
 34 35  2  0
 35 36  1  0
 30 37  2  0
 24  2  2  0
 37 26  1  0
 22  9  2  0
 36 31  2  0
 20 14  1  0
  1 38  1  0
  1 39  1  0
  1 40  1  0
  3 41  1  0
  4 42  1  0
  6 43  1  0
 10 44  1  0
 11 45  1  0
 13 46  1  0
 13 47  1  0
 15 48  1  0
 15 49  1  0
 16 50  1  0
 16 51  1  0
 18 52  1  0
 18 53  1  0
 18 54  1  0
 19 55  1  0
 19 56  1  0
 20 57  1  0
 20 58  1  0
 21 59  1  0
 22 60  1  0
 23 61  1  0
 25 62  1  0
 28 63  1  0
 29 64  1  0
 32 65  1  0
 33 66  1  0
 34 67  1  0
 36 68  1  0
M  END
>  <meeko>  (1) 
{"is_sidechain": false}

>  <vina_affinity_kcal_mol>  (1) 
-9.966

>  <pose_rank>  (1) 
1

$$$$

     RDKit          3D

 68 72  0  0  0  0  0  0  0  0999 V2000
  -10.0020    7.1230  -17.3990 C   0  0  0  0  0  0  0  0  0  0  0  0
   -9.3110    5.8150  -17.1180 C   0  0  0  0  0  0  0  0  0  0  0  0
   -8.0860    5.5610  -17.7570 C   0  0  0  0  0  0  0  0  0  0  0  0
   -7.3970    4.3660  -17.5440 C   0  0  0  0  0  0  0  0  0  0  0  0
   -7.9190    3.4050  -16.6890 C   0  0  0  0  0  0  0  0  0  0  0  0
   -7.2990    2.1660  -16.4210 N   0  0  0  0  0  0  0  0  0  0  0  0
   -6.8370    1.2400  -17.3380 C   0  0  0  0  0  0  0  0  0  0  0  0
   -6.8170    1.3570  -18.5570 O   0  0  0  0  0  0  0  0  0  0  0  0
   -6.2720   -0.0030  -16.7390 C   0  0  0  0  0  0  0  0  0  0  0  0
   -5.1900   -0.6750  -17.3200 C   0  0  0  0  0  0  0  0  0  0  0  0
   -4.6940   -1.8400  -16.7280 C   0  0  0  0  0  0  0  0  0  0  0  0
   -5.2640   -2.3420  -15.5480 C   0  0  0  0  0  0  0  0  0  0  0  0
   -4.7160   -3.6020  -14.9060 C   0  0  0  0  0  0  0  0  0  0  0  0
   -5.7720   -4.4900  -14.3790 N   0  0  0  0  0  0  0  0  0  0  0  0
   -5.2860   -5.3180  -13.2560 C   0  0  0  0  0  0  0  0  0  0  0  0
   -4.2030   -6.3700  -13.6170 C   0  0  0  0  0  0  0  0  0  0  0  0
   -4.2100   -6.7860  -15.0330 N   0  0  0  0  0  0  0  0  0  0  0  0
   -3.5590   -8.0780  -15.2120 C   0  0  0  0  0  0  0  0  0  0  0  0
   -5.5810   -6.7830  -15.5610 C   0  0  0  0  0  0  0  0  0  0  0  0
   -6.2660   -5.3910  -15.4480 C   0  0  0  0  0  0  0  0  0  0  0  0
   -6.3340   -1.6490  -14.9610 C   0  0  0  0  0  0  0  0  0  0  0  0
   -6.8300   -0.4850  -15.5500 C   0  0  0  0  0  0  0  0  0  0  0  0
   -9.1440    3.6580  -16.0500 C   0  0  0  0  0  0  0  0  0  0  0  0
   -9.8600    4.8530  -16.2400 C   0  0  0  0  0  0  0  0  0  0  0  0
  -11.0890    5.1020  -15.6100 N   0  0  0  0  0  0  0  0  0  0  0  0
  -11.9180    4.3770  -14.7590 C   0  0  0  0  0  0  0  0  0  0  0  0
  -13.1370    4.8050  -14.4080 N   0  0  0  0  0  0  0  0  0  0  0  0
  -13.8460    4.0270  -13.5740 C   0  0  0  0  0  0  0  0  0  0  0  0
  -13.3850    2.8380  -13.0690 C   0  0  0  0  0  0  0  0  0  0  0  0
  -12.1190    2.4610  -13.4670 C   0  0  0  0  0  0  0  0  0  0  0  0
  -11.4730    1.2130  -13.0230 C   0  0  0  0  0  0  0  0  0  0  0  0
  -11.5520    0.7760  -11.6920 C   0  0  0  0  0  0  0  0  0  0  0  0
  -10.9280   -0.4040  -11.2880 C   0  0  0  0  0  0  0  0  0  0  0  0
  -10.2310   -1.1330  -12.2340 C   0  0  0  0  0  0  0  0  0  0  0  0
  -10.1260   -0.7660  -13.5270 N   0  0  0  0  0  0  0  0  0  0  0  0
  -10.7520    0.3850  -13.8850 C   0  0  0  0  0  0  0  0  0  0  0  0
  -11.3910    3.2240  -14.3150 N   0  0  0  0  0  0  0  0  0  0  0  0
  -10.2607    7.6126  -16.4486 H   0  0  0  0  0  0  0  0  0  0  0  0
   -9.3309    7.7755  -17.9769 H   0  0  0  0  0  0  0  0  0  0  0  0
  -10.9192    6.9364  -17.9769 H   0  0  0  0  0  0  0  0  0  0  0  0
   -7.6630    6.3160  -18.4361 H   0  0  0  0  0  0  0  0  0  0  0  0
   -6.4393    4.1855  -18.0542 H   0  0  0  0  0  0  0  0  0  0  0  0
   -7.1220    1.9740  -15.4430 H   0  0  0  0  0  0  0  0  0  0  0  0
   -4.7308   -0.2867  -18.2411 H   0  0  0  0  0  0  0  0  0  0  0  0
   -3.8482   -2.3687  -17.1918 H   0  0  0  0  0  0  0  0  0  0  0  0
   -4.1370   -4.1556  -15.6598 H   0  0  0  0  0  0  0  0  0  0  0  0
   -4.0929   -3.2918  -14.0542 H   0  0  0  0  0  0  0  0  0  0  0  0
   -4.8629   -4.6437  -12.4969 H   0  0  0  0  0  0  0  0  0  0  0  0
   -6.1572   -5.8913  -12.9062 H   0  0  0  0  0  0  0  0  0  0  0  0
   -3.2161   -5.9411  -13.3886 H   0  0  0  0  0  0  0  0  0  0  0  0
   -4.4258   -7.2687  -13.0231 H   0  0  0  0  0  0  0  0  0  0  0  0
   -3.3380   -8.5167  -14.2278 H   0  0  0  0  0  0  0  0  0  0  0  0
   -4.2260   -8.7503  -15.7716 H   0  0  0  0  0  0  0  0  0  0  0  0
   -2.6218   -7.9420  -15.7716 H   0  0  0  0  0  0  0  0  0  0  0  0
   -5.5502   -7.0748  -16.6211 H   0  0  0  0  0  0  0  0  0  0  0  0
   -6.1694   -7.4921  -14.9602 H   0  0  0  0  0  0  0  0  0  0  0  0
   -6.1299   -4.8736  -16.4091 H   0  0  0  0  0  0  0  0  0  0  0  0
   -7.3125   -5.6046  -15.1850 H   0  0  0  0  0  0  0  0  0  0  0  0
   -6.7845   -2.0256  -14.0309 H   0  0  0  0  0  0  0  0  0  0  0  0
   -7.6632    0.0558  -15.0774 H   0  0  0  0  0  0  0  0  0  0  0  0
   -9.5582    2.8934  -15.3764 H   0  0  0  0  0  0  0  0  0  0  0  0
  -11.5020    6.0110  -15.7510 H   0  0  0  0  0  0  0  0  0  0  0  0
  -14.8517    4.3617  -13.2797 H   0  0  0  0  0  0  0  0  0  0  0  0
  -13.9890    2.2215  -12.3870 H   0  0  0  0  0  0  0  0  0  0  0  0
  -12.1135    1.3720  -10.9575 H   0  0  0  0  0  0  0  0  0  0  0  0
  -10.9887   -0.7458  -10.2442 H   0  0  0  0  0  0  0  0  0  0  0  0
   -9.7358   -2.0618  -11.9145 H   0  0  0  0  0  0  0  0  0  0  0  0
  -10.6854    0.6894  -14.9399 H   0  0  0  0  0  0  0  0  0  0  0  0
  1  2  1  0
  2  3  1  0
  3  4  2  0
  4  5  1  0
  5  6  1  0
  6  7  1  0
  7  8  2  0
  7  9  1  0
  9 10  1  0
 10 11  2  0
 11 12  1  0
 12 13  1  0
 13 14  1  0
 14 15  1  0
 15 16  1  0
 16 17  1  0
 17 18  1  0
 17 19  1  0
 19 20  1  0
 12 21  2  0
 21 22  1  0
  5 23  2  0
 23 24  1  0
 24 25  1  0
 25 26  1  0
 26 27  2  0
 27 28  1  0
 28 29  2  0
 29 30  1  0
 30 31  1  0
 31 32  1  0
 32 33  2  0
 33 34  1  0
 34 35  2  0
 35 36  1  0
 30 37  2  0
 24  2  2  0
 37 26  1  0
 22  9  2  0
 36 31  2  0
 20 14  1  0
  1 38  1  0
  1 39  1  0
  1 40  1  0
  3 41  1  0
  4 42  1  0
  6 43  1  0
 10 44  1  0
 11 45  1  0
 13 46  1  0
 13 47  1  0
 15 48  1  0
 15 49  1  0
 16 50  1  0
 16 51  1  0
 18 52  1  0
 18 53  1  0
 18 54  1  0
 19 55  1  0
 19 56  1  0
 20 57  1  0
 20 58  1  0
 21 59  1  0
 22 60  1  0
 23 61  1  0
 25 62  1  0
 28 63  1  0
 29 64  1  0
 32 65  1  0
 33 66  1  0
 34 67  1  0
 36 68  1  0
M  END
>  <meeko>  (2) 
{"is_sidechain": false}

>  <vina_affinity_kcal_mol>  (2) 
-9.722

>  <pose_rank>  (2) 
2

$$$$

     RDKit          3D

 68 72  0  0  0  0  0  0  0  0999 V2000
   -9.4000    6.0440  -18.0150 C   0  0  0  0  0  0  0  0  0  0  0  0
   -9.9260    5.2180  -16.8710 C   0  0  0  0  0  0  0  0  0  0  0  0
  -11.0250    5.7100  -16.1470 C   0  0  0  0  0  0  0  0  0  0  0  0
  -11.5570    4.9960  -15.0720 C   0  0  0  0  0  0  0  0  0  0  0  0
  -11.0020    3.7780  -14.7040 C   0  0  0  0  0  0  0  0  0  0  0  0
  -11.4660    2.9930  -13.6270 N   0  0  0  0  0  0  0  0  0  0  0  0
  -12.7780    2.7140  -13.2920 C   0  0  0  0  0  0  0  0  0  0  0  0
  -13.7820    3.0400  -13.9140 O   0  0  0  0  0  0  0  0  0  0  0  0
  -12.9460    1.8890  -12.0610 C   0  0  0  0  0  0  0  0  0  0  0  0
  -14.1560    1.8550  -11.3570 C   0  0  0  0  0  0  0  0  0  0  0  0
  -14.2690    1.0730  -10.2040 C   0  0  0  0  0  0  0  0  0  0  0  0
  -13.1830    0.3110   -9.7460 C   0  0  0  0  0  0  0  0  0  0  0  0
  -13.3140   -0.5420   -8.4990 C   0  0  0  0  0  0  0  0  0  0  0  0
  -13.1510   -1.9850   -8.7640 N   0  0  0  0  0  0  0  0  0  0  0  0
  -14.3080   -2.5440   -9.4940 C   0  0  0  0  0  0  0  0  0  0  0  0
  -15.6490   -2.5620   -8.7130 C   0  0  0  0  0  0  0  0  0  0  0  0
  -15.4970   -2.5590   -7.2450 N   0  0  0  0  0  0  0  0  0  0  0  0
  -16.6930   -3.0680   -6.5850 C   0  0  0  0  0  0  0  0  0  0  0  0
  -14.2930   -3.3030   -6.8540 C   0  0  0  0  0  0  0  0  0  0  0  0
  -12.9960   -2.7270   -7.4890 C   0  0  0  0  0  0  0  0  0  0  0  0
  -11.9810    0.3350  -10.4710 C   0  0  0  0  0  0  0  0  0  0  0  0
  -11.8660    1.1160  -11.6230 C   0  0  0  0  0  0  0  0  0  0  0  0
   -9.9030    3.2860  -15.4270 C   0  0  0  0  0  0  0  0  0  0  0  0
   -9.3470    3.9780  -16.5160 C   0  0  0  0  0  0  0  0  0  0  0  0
   -8.2430    3.4910  -17.2320 N   0  0  0  0  0  0  0  0  0  0  0  0
   -7.4420    2.3570  -17.1460 C   0  0  0  0  0  0  0  0  0  0  0  0
   -6.5860    2.0060  -18.1130 N   0  0  0  0  0  0  0  0  0  0  0  0
   -5.8690    0.8860  -17.9260 C   0  0  0  0  0  0  0  0  0  0  0  0
   -5.9760    0.0960  -16.8100 C   0  0  0  0  0  0  0  0  0  0  0  0
   -6.8800    0.5120  -15.8550 C   0  0  0  0  0  0  0  0  0  0  0  0
   -7.1170   -0.2160  -14.5970 C   0  0  0  0  0  0  0  0  0  0  0  0
   -8.1610    0.1340  -13.7270 C   0  0  0  0  0  0  0  0  0  0  0  0
   -8.3650   -0.5630  -12.5370 C   0  0  0  0  0  0  0  0  0  0  0  0
   -7.5130   -1.6100  -12.2370 C   0  0  0  0  0  0  0  0  0  0  0  0
   -6.4980   -1.9950  -13.0360 N   0  0  0  0  0  0  0  0  0  0  0  0
   -6.3330   -1.2980  -14.1890 C   0  0  0  0  0  0  0  0  0  0  0  0
   -7.6050    1.6430  -16.0190 N   0  0  0  0  0  0  0  0  0  0  0  0
   -8.8487    6.9097  -17.6191 H   0  0  0  0  0  0  0  0  0  0  0  0
   -8.7259    5.4304  -18.6308 H   0  0  0  0  0  0  0  0  0  0  0  0
  -10.2411    6.3953  -18.6308 H   0  0  0  0  0  0  0  0  0  0  0  0
  -11.4733    6.6732  -16.4319 H   0  0  0  0  0  0  0  0  0  0  0  0
  -12.4165    5.3987  -14.5161 H   0  0  0  0  0  0  0  0  0  0  0  0
  -10.7440    2.5360  -13.0830 H   0  0  0  0  0  0  0  0  0  0  0  0
  -15.0160    2.4426  -11.7107 H   0  0  0  0  0  0  0  0  0  0  0  0
  -15.2190    1.0546   -9.6498 H   0  0  0  0  0  0  0  0  0  0  0  0
  -12.5438   -0.2293   -7.7786 H   0  0  0  0  0  0  0  0  0  0  0  0
  -14.3306   -0.3938   -8.1059 H   0  0  0  0  0  0  0  0  0  0  0  0
  -14.4549   -1.9450  -10.4048 H   0  0  0  0  0  0  0  0  0  0  0  0
  -14.0597   -3.5976   -9.6896 H   0  0  0  0  0  0  0  0  0  0  0  0
  -16.2275   -1.6719   -9.0013 H   0  0  0  0  0  0  0  0  0  0  0  0
  -16.1538   -3.5034   -8.9755 H   0  0  0  0  0  0  0  0  0  0  0  0
  -16.5618   -3.0122   -5.4943 H   0  0  0  0  0  0  0  0  0  0  0  0
  -17.5616   -2.4615   -6.8813 H   0  0  0  0  0  0  0  0  0  0  0  0
  -16.8581   -4.1144   -6.8813 H   0  0  0  0  0  0  0  0  0  0  0  0
  -14.1957   -3.2636   -5.7590 H   0  0  0  0  0  0  0  0  0  0  0  0
  -14.4091   -4.3350   -7.2165 H   0  0  0  0  0  0  0  0  0  0  0  0
  -12.5427   -2.0417   -6.7576 H   0  0  0  0  0  0  0  0  0  0  0  0
  -12.3818   -3.6048   -7.7383 H   0  0  0  0  0  0  0  0  0  0  0  0
  -11.1246   -0.2650  -10.1296 H   0  0  0  0  0  0  0  0  0  0  0  0
  -10.9223    1.1232  -12.1881 H   0  0  0  0  0  0  0  0  0  0  0  0
   -9.4613    2.3234  -15.1297 H   0  0  0  0  0  0  0  0  0  0  0  0
   -7.9290    4.0380  -18.0190 H   0  0  0  0  0  0  0  0  0  0  0  0
   -5.1579    0.5862  -18.7098 H   0  0  0  0  0  0  0  0  0  0  0  0
   -5.3754   -0.8169  -16.6838 H   0  0  0  0  0  0  0  0  0  0  0  0
   -8.8273    0.9695  -13.9875 H   0  0  0  0  0  0  0  0  0  0  0  0
   -9.1824   -0.2873  -11.8545 H   0  0  0  0  0  0  0  0  0  0  0  0
   -7.6720   -2.1577  -11.2964 H   0  0  0  0  0  0  0  0  0  0  0  0
   -5.5160   -1.6103  -14.8560 H   0  0  0  0  0  0  0  0  0  0  0  0
  1  2  1  0
  2  3  1  0
  3  4  2  0
  4  5  1  0
  5  6  1  0
  6  7  1  0
  7  8  2  0
  7  9  1  0
  9 10  1  0
 10 11  2  0
 11 12  1  0
 12 13  1  0
 13 14  1  0
 14 15  1  0
 15 16  1  0
 16 17  1  0
 17 18  1  0
 17 19  1  0
 19 20  1  0
 12 21  2  0
 21 22  1  0
  5 23  2  0
 23 24  1  0
 24 25  1  0
 25 26  1  0
 26 27  2  0
 27 28  1  0
 28 29  2  0
 29 30  1  0
 30 31  1  0
 31 32  1  0
 32 33  2  0
 33 34  1  0
 34 35  2  0
 35 36  1  0
 30 37  2  0
 24  2  2  0
 37 26  1  0
 22  9  2  0
 36 31  2  0
 20 14  1  0
  1 38  1  0
  1 39  1  0
  1 40  1  0
  3 41  1  0
  4 42  1  0
  6 43  1  0
 10 44  1  0
 11 45  1  0
 13 46  1  0
 13 47  1  0
 15 48  1  0
 15 49  1  0
 16 50  1  0
 16 51  1  0
 18 52  1  0
 18 53  1  0
 18 54  1  0
 19 55  1  0
 19 56  1  0
 20 57  1  0
 20 58  1  0
 21 59  1  0
 22 60  1  0
 23 61  1  0
 25 62  1  0
 28 63  1  0
 29 64  1  0
 32 65  1  0
 33 66  1  0
 34 67  1  0
 36 68  1  0
M  END
>  <meeko>  (3) 
{"is_sidechain": false}

>  <vina_affinity_kcal_mol>  (3) 
-9.643

>  <pose_rank>  (3) 
3

$$$$

     RDKit          3D

 68 72  0  0  0  0  0  0  0  0999 V2000
   -9.7500    6.2010  -18.0610 C   0  0  0  0  0  0  0  0  0  0  0  0
  -10.2340    5.3530  -16.9140 C   0  0  0  0  0  0  0  0  0  0  0  0
  -11.3010    5.8340  -16.1360 C   0  0  0  0  0  0  0  0  0  0  0  0
  -11.7920    5.1000  -15.0560 C   0  0  0  0  0  0  0  0  0  0  0  0
  -11.2270    3.8730  -14.7350 C   0  0  0  0  0  0  0  0  0  0  0  0
  -11.6510    3.0670  -13.6560 N   0  0  0  0  0  0  0  0  0  0  0  0
  -12.9480    2.8350  -13.2370 C   0  0  0  0  0  0  0  0  0  0  0  0
  -13.9770    3.2310  -13.7710 O   0  0  0  0  0  0  0  0  0  0  0  0
  -13.0670    1.9710  -12.0270 C   0  0  0  0  0  0  0  0  0  0  0  0
  -11.9790    1.2420  -11.5330 C   0  0  0  0  0  0  0  0  0  0  0  0
  -12.1350    0.4400  -10.3990 C   0  0  0  0  0  0  0  0  0  0  0  0
  -13.3730    0.3630   -9.7410 C   0  0  0  0  0  0  0  0  0  0  0  0
  -13.5350   -0.5030   -8.5060 C   0  0  0  0  0  0  0  0  0  0  0  0
  -14.0440    0.2420   -7.3390 N   0  0  0  0  0  0  0  0  0  0  0  0
  -13.0710    0.2570   -6.2270 C   0  0  0  0  0  0  0  0  0  0  0  0
  -12.7860   -1.1190   -5.5660 C   0  0  0  0  0  0  0  0  0  0  0  0
  -13.8720   -2.1050   -5.7260 N   0  0  0  0  0  0  0  0  0  0  0  0
  -13.7960   -3.1510   -4.7130 C   0  0  0  0  0  0  0  0  0  0  0  0
  -15.1780   -1.4330   -5.7270 C   0  0  0  0  0  0  0  0  0  0  0  0
  -15.3060   -0.3670   -6.8520 C   0  0  0  0  0  0  0  0  0  0  0  0
  -14.4520    1.1140  -10.2320 C   0  0  0  0  0  0  0  0  0  0  0  0
  -14.2980    1.9160  -11.3640 C   0  0  0  0  0  0  0  0  0  0  0  0
  -10.1600    3.3920  -15.5100 C   0  0  0  0  0  0  0  0  0  0  0  0
   -9.6460    4.1050  -16.6070 C   0  0  0  0  0  0  0  0  0  0  0  0
   -8.5720    3.6300  -17.3760 N   0  0  0  0  0  0  0  0  0  0  0  0
   -7.2670    3.2360  -17.0990 C   0  0  0  0  0  0  0  0  0  0  0  0
   -6.2430    4.0980  -17.0890 N   0  0  0  0  0  0  0  0  0  0  0  0
   -5.0240    3.6050  -16.8160 C   0  0  0  0  0  0  0  0  0  0  0  0
   -4.7830    2.2800  -16.5580 C   0  0  0  0  0  0  0  0  0  0  0  0
   -5.8820    1.4460  -16.5900 C   0  0  0  0  0  0  0  0  0  0  0  0
   -5.8020   -0.0030  -16.3320 C   0  0  0  0  0  0  0  0  0  0  0  0
   -4.7070   -0.7680  -16.7600 C   0  0  0  0  0  0  0  0  0  0  0  0
   -4.6510   -2.1400  -16.5130 C   0  0  0  0  0  0  0  0  0  0  0  0
   -5.7040   -2.7250  -15.8330 C   0  0  0  0  0  0  0  0  0  0  0  0
   -6.7780   -2.0390  -15.3930 N   0  0  0  0  0  0  0  0  0  0  0  0
   -6.7940   -0.7060  -15.6460 C   0  0  0  0  0  0  0  0  0  0  0  0
   -7.1200    1.9230  -16.8520 N   0  0  0  0  0  0  0  0  0  0  0  0
   -9.2407    7.0933  -17.6680 H   0  0  0  0  0  0  0  0  0  0  0  0
   -9.0479    5.6193  -18.6763 H   0  0  0  0  0  0  0  0  0  0  0  0
  -10.6079    6.5097  -18.6763 H   0  0  0  0  0  0  0  0  0  0  0  0
  -11.7562    6.8046  -16.3825 H   0  0  0  0  0  0  0  0  0  0  0  0
  -12.6274    5.4936  -14.4583 H   0  0  0  0  0  0  0  0  0  0  0  0
  -10.9150    2.5580  -13.1830 H   0  0  0  0  0  0  0  0  0  0  0  0
  -11.0027    1.3002  -12.0365 H   0  0  0  0  0  0  0  0  0  0  0  0
  -11.2792   -0.1367  -10.0181 H   0  0  0  0  0  0  0  0  0  0  0  0
  -14.2402   -1.3147   -8.7378 H   0  0  0  0  0  0  0  0  0  0  0  0
  -12.5384   -0.8860   -8.2412 H   0  0  0  0  0  0  0  0  0  0  0  0
  -12.1195    0.6495   -6.6151 H   0  0  0  0  0  0  0  0  0  0  0  0
  -13.5219    0.8807   -5.4411 H   0  0  0  0  0  0  0  0  0  0  0  0
  -11.8731   -1.5355   -6.0168 H   0  0  0  0  0  0  0  0  0  0  0  0
  -12.6835   -0.9351   -4.4863 H   0  0  0  0  0  0  0  0  0  0  0  0
  -13.8291   -2.6954   -3.7123 H   0  0  0  0  0  0  0  0  0  0  0  0
  -14.6466   -3.8384   -4.8312 H   0  0  0  0  0  0  0  0  0  0  0  0
  -12.8550   -3.7083   -4.8312 H   0  0  0  0  0  0  0  0  0  0  0  0
  -15.9629   -2.1904   -5.8695 H   0  0  0  0  0  0  0  0  0  0  0  0
  -15.2835   -0.9124   -4.7637 H   0  0  0  0  0  0  0  0  0  0  0  0
  -15.7981   -0.8464   -7.7111 H   0  0  0  0  0  0  0  0  0  0  0  0
  -15.8723    0.4618   -6.4021 H   0  0  0  0  0  0  0  0  0  0  0  0
  -15.4254    1.0704   -9.7215 H   0  0  0  0  0  0  0  0  0  0  0  0
  -15.1477    2.5071  -11.7363 H   0  0  0  0  0  0  0  0  0  0  0  0
   -9.7101    2.4226  -15.2496 H   0  0  0  0  0  0  0  0  0  0  0  0
   -8.7370    3.4990  -18.3620 H   0  0  0  0  0  0  0  0  0  0  0  0
   -4.1729    4.3017  -16.7984 H   0  0  0  0  0  0  0  0  0  0  0  0
   -3.7729    1.9039  -16.3384 H   0  0  0  0  0  0  0  0  0  0  0  0
   -3.8811   -0.2795  -17.2978 H   0  0  0  0  0  0  0  0  0  0  0  0
   -3.7929   -2.7402  -16.8498 H   0  0  0  0  0  0  0  0  0  0  0  0
   -5.6629   -3.8073  -15.6411 H   0  0  0  0  0  0  0  0  0  0  0  0
   -7.6589   -0.1327  -15.2809 H   0  0  0  0  0  0  0  0  0  0  0  0
  1  2  1  0
  2  3  1  0
  3  4  2  0
  4  5  1  0
  5  6  1  0
  6  7  1  0
  7  8  2  0
  7  9  1  0
  9 10  1  0
 10 11  2  0
 11 12  1  0
 12 13  1  0
 13 14  1  0
 14 15  1  0
 15 16  1  0
 16 17  1  0
 17 18  1  0
 17 19  1  0
 19 20  1  0
 12 21  2  0
 21 22  1  0
  5 23  2  0
 23 24  1  0
 24 25  1  0
 25 26  1  0
 26 27  2  0
 27 28  1  0
 28 29  2  0
 29 30  1  0
 30 31  1  0
 31 32  1  0
 32 33  2  0
 33 34  1  0
 34 35  2  0
 35 36  1  0
 30 37  2  0
 24  2  2  0
 37 26  1  0
 22  9  2  0
 36 31  2  0
 20 14  1  0
  1 38  1  0
  1 39  1  0
  1 40  1  0
  3 41  1  0
  4 42  1  0
  6 43  1  0
 10 44  1  0
 11 45  1  0
 13 46  1  0
 13 47  1  0
 15 48  1  0
 15 49  1  0
 16 50  1  0
 16 51  1  0
 18 52  1  0
 18 53  1  0
 18 54  1  0
 19 55  1  0
 19 56  1  0
 20 57  1  0
 20 58  1  0
 21 59  1  0
 22 60  1  0
 23 61  1  0
 25 62  1  0
 28 63  1  0
 29 64  1  0
 32 65  1  0
 33 66  1  0
 34 67  1  0
 36 68  1  0
M  END
>  <meeko>  (4) 
{"is_sidechain": false}

>  <vina_affinity_kcal_mol>  (4) 
-9.562

>  <pose_rank>  (4) 
4

$$$$

     RDKit          3D

 68 72  0  0  0  0  0  0  0  0999 V2000
   -8.0960    5.3590  -18.6490 C   0  0  0  0  0  0  0  0  0  0  0  0
   -8.8020    4.6840  -17.5020 C   0  0  0  0  0  0  0  0  0  0  0  0
   -9.9030    5.3380  -16.9230 C   0  0  0  0  0  0  0  0  0  0  0  0
  -10.5960    4.7700  -15.8540 C   0  0  0  0  0  0  0  0  0  0  0  0
  -10.2040    3.5390  -15.3450 C   0  0  0  0  0  0  0  0  0  0  0  0
  -10.8380    2.8940  -14.2620 N   0  0  0  0  0  0  0  0  0  0  0  0
  -12.1300    3.0850  -13.8070 C   0  0  0  0  0  0  0  0  0  0  0  0
  -12.9890    3.8000  -14.3080 O   0  0  0  0  0  0  0  0  0  0  0  0
  -12.4910    2.2840  -12.6030 C   0  0  0  0  0  0  0  0  0  0  0  0
  -13.7570    2.3750  -12.0100 C   0  0  0  0  0  0  0  0  0  0  0  0
  -14.0530    1.6110  -10.8790 C   0  0  0  0  0  0  0  0  0  0  0  0
  -13.0960    0.7420  -10.3300 C   0  0  0  0  0  0  0  0  0  0  0  0
  -13.4260   -0.0910   -9.1070 C   0  0  0  0  0  0  0  0  0  0  0  0
  -14.5350   -1.0390   -9.3320 N   0  0  0  0  0  0  0  0  0  0  0  0
  -15.3440   -1.2400   -8.1120 C   0  0  0  0  0  0  0  0  0  0  0  0
  -14.6190   -1.9480   -6.9360 C   0  0  0  0  0  0  0  0  0  0  0  0
  -13.4810   -2.7930   -7.3450 N   0  0  0  0  0  0  0  0  0  0  0  0
  -13.1660   -3.7900   -6.3290 C   0  0  0  0  0  0  0  0  0  0  0  0
  -13.7430   -3.4050   -8.6540 C   0  0  0  0  0  0  0  0  0  0  0  0
  -14.0060   -2.3540   -9.7690 C   0  0  0  0  0  0  0  0  0  0  0  0
  -11.8380    0.6420  -10.9440 C   0  0  0  0  0  0  0  0  0  0  0  0
  -11.5400    1.4040  -12.0750 C   0  0  0  0  0  0  0  0  0  0  0  0
   -9.1030    2.8860  -15.9220 C   0  0  0  0  0  0  0  0  0  0  0  0
   -8.3860    3.4290  -17.0030 C   0  0  0  0  0  0  0  0  0  0  0  0
   -7.2800    2.7810  -17.5730 N   0  0  0  0  0  0  0  0  0  0  0  0
   -6.6120    1.5850  -17.3300 C   0  0  0  0  0  0  0  0  0  0  0  0
   -7.1740    0.5730  -16.6570 N   0  0  0  0  0  0  0  0  0  0  0  0
   -6.4330   -0.5320  -16.4740 C   0  0  0  0  0  0  0  0  0  0  0  0
   -5.1470   -0.6680  -16.9320 C   0  0  0  0  0  0  0  0  0  0  0  0
   -4.6290    0.4150  -17.6130 C   0  0  0  0  0  0  0  0  0  0  0  0
   -3.2670    0.4360  -18.1750 C   0  0  0  0  0  0  0  0  0  0  0  0
   -2.8690   -0.4610  -19.1780 C   0  0  0  0  0  0  0  0  0  0  0  0
   -1.5740   -0.4290  -19.6940 C   0  0  0  0  0  0  0  0  0  0  0  0
   -0.6920    0.5100  -19.1910 C   0  0  0  0  0  0  0  0  0  0  0  0
   -1.0190    1.4000  -18.2330 N   0  0  0  0  0  0  0  0  0  0  0  0
   -2.2900    1.3440  -17.7600 C   0  0  0  0  0  0  0  0  0  0  0  0
   -5.3610    1.5340  -17.8170 N   0  0  0  0  0  0  0  0  0  0  0  0
   -7.3535    6.0689  -18.2558 H   0  0  0  0  0  0  0  0  0  0  0  0
   -7.5889    4.6013  -19.2644 H   0  0  0  0  0  0  0  0  0  0  0  0
   -8.8302    5.8996  -19.2644 H   0  0  0  0  0  0  0  0  0  0  0  0
  -10.2232    6.3130  -17.3190 H   0  0  0  0  0  0  0  0  0  0  0  0
  -11.4545    5.2981  -15.4135 H   0  0  0  0  0  0  0  0  0  0  0  0
  -10.2940    2.1660  -13.8150 H   0  0  0  0  0  0  0  0  0  0  0  0
  -14.5170    3.0474  -12.4347 H   0  0  0  0  0  0  0  0  0  0  0  0
  -15.0463    1.6907  -10.4132 H   0  0  0  0  0  0  0  0  0  0  0  0
  -12.5304   -0.6620   -8.8207 H   0  0  0  0  0  0  0  0  0  0  0  0
  -13.7441    0.6026   -8.3147 H   0  0  0  0  0  0  0  0  0  0  0  0
  -15.6761   -0.2523   -7.7595 H   0  0  0  0  0  0  0  0  0  0  0  0
  -16.1678   -1.9080   -8.4037 H   0  0  0  0  0  0  0  0  0  0  0  0
  -14.2450   -1.1762   -6.2472 H   0  0  0  0  0  0  0  0  0  0  0  0
  -15.3563   -2.6172   -6.4685 H   0  0  0  0  0  0  0  0  0  0  0  0
  -13.3045   -3.3516   -5.3297 H   0  0  0  0  0  0  0  0  0  0  0  0
  -13.8343   -4.6559   -6.4454 H   0  0  0  0  0  0  0  0  0  0  0  0
  -12.1215   -4.1147   -6.4454 H   0  0  0  0  0  0  0  0  0  0  0  0
  -12.8700   -4.0099   -8.9402 H   0  0  0  0  0  0  0  0  0  0  0  0
  -14.6507   -4.0187   -8.5568 H   0  0  0  0  0  0  0  0  0  0  0  0
  -13.0536   -2.1742  -10.2892 H   0  0  0  0  0  0  0  0  0  0  0  0
  -14.7967   -2.7900  -10.3972 H   0  0  0  0  0  0  0  0  0  0  0  0
  -11.0815   -0.0416  -10.5311 H   0  0  0  0  0  0  0  0  0  0  0  0
  -10.5536    1.3122  -12.5530 H   0  0  0  0  0  0  0  0  0  0  0  0
   -8.7898    1.9139  -15.5134 H   0  0  0  0  0  0  0  0  0  0  0  0
   -6.8420    3.2290  -18.3630 H   0  0  0  0  0  0  0  0  0  0  0  0
   -6.8818   -1.3742  -15.9269 H   0  0  0  0  0  0  0  0  0  0  0  0
   -4.5634   -1.5856  -16.7663 H   0  0  0  0  0  0  0  0  0  0  0  0
   -3.5882   -1.1993  -19.5623 H   0  0  0  0  0  0  0  0  0  0  0  0
   -1.2621   -1.1321  -20.4804 H   0  0  0  0  0  0  0  0  0  0  0  0
    0.3312    0.5317  -19.5943 H   0  0  0  0  0  0  0  0  0  0  0  0
   -2.5738    2.0731  -16.9868 H   0  0  0  0  0  0  0  0  0  0  0  0
  1  2  1  0
  2  3  1  0
  3  4  2  0
  4  5  1  0
  5  6  1  0
  6  7  1  0
  7  8  2  0
  7  9  1  0
  9 10  1  0
 10 11  2  0
 11 12  1  0
 12 13  1  0
 13 14  1  0
 14 15  1  0
 15 16  1  0
 16 17  1  0
 17 18  1  0
 17 19  1  0
 19 20  1  0
 12 21  2  0
 21 22  1  0
  5 23  2  0
 23 24  1  0
 24 25  1  0
 25 26  1  0
 26 27  2  0
 27 28  1  0
 28 29  2  0
 29 30  1  0
 30 31  1  0
 31 32  1  0
 32 33  2  0
 33 34  1  0
 34 35  2  0
 35 36  1  0
 30 37  2  0
 24  2  2  0
 37 26  1  0
 22  9  2  0
 36 31  2  0
 20 14  1  0
  1 38  1  0
  1 39  1  0
  1 40  1  0
  3 41  1  0
  4 42  1  0
  6 43  1  0
 10 44  1  0
 11 45  1  0
 13 46  1  0
 13 47  1  0
 15 48  1  0
 15 49  1  0
 16 50  1  0
 16 51  1  0
 18 52  1  0
 18 53  1  0
 18 54  1  0
 19 55  1  0
 19 56  1  0
 20 57  1  0
 20 58  1  0
 21 59  1  0
 22 60  1  0
 23 61  1  0
 25 62  1  0
 28 63  1  0
 29 64  1  0
 32 65  1  0
 33 66  1  0
 34 67  1  0
 36 68  1  0
M  END
>  <meeko>  (5) 
{"is_sidechain": false}

>  <vina_affinity_kcal_mol>  (5) 
-9.483

>  <pose_rank>  (5) 
5

$$$$

     RDKit          3D

 68 72  0  0  0  0  0  0  0  0999 V2000
   -5.1670    2.7890  -16.5270 C   0  0  0  0  0  0  0  0  0  0  0  0
   -6.1710    2.2430  -15.5450 C   0  0  0  0  0  0  0  0  0  0  0  0
   -5.7330    1.2900  -14.6100 C   0  0  0  0  0  0  0  0  0  0  0  0
   -6.6140    0.7400  -13.6780 C   0  0  0  0  0  0  0  0  0  0  0  0
   -7.9460    1.1320  -13.6630 C   0  0  0  0  0  0  0  0  0  0  0  0
   -8.9080    0.6230  -12.7650 N   0  0  0  0  0  0  0  0  0  0  0  0
   -9.9940   -0.1800  -13.0610 C   0  0  0  0  0  0  0  0  0  0  0  0
  -10.2820   -0.6580  -14.1510 O   0  0  0  0  0  0  0  0  0  0  0  0
  -10.8600   -0.5130  -11.8930 C   0  0  0  0  0  0  0  0  0  0  0  0
  -10.9560   -1.8180  -11.3950 C   0  0  0  0  0  0  0  0  0  0  0  0
  -11.7840   -2.0870  -10.3020 C   0  0  0  0  0  0  0  0  0  0  0  0
  -12.5170   -1.0590   -9.6880 C   0  0  0  0  0  0  0  0  0  0  0  0
  -13.4070   -1.3560   -8.4970 C   0  0  0  0  0  0  0  0  0  0  0  0
  -14.8440   -1.1890   -8.7910 N   0  0  0  0  0  0  0  0  0  0  0  0
  -15.4710   -0.1740   -7.9190 C   0  0  0  0  0  0  0  0  0  0  0  0
  -15.5450   -0.5390   -6.4110 C   0  0  0  0  0  0  0  0  0  0  0  0
  -15.5130   -1.9880   -6.1350 N   0  0  0  0  0  0  0  0  0  0  0  0
  -16.0720   -2.2930   -4.8240 C   0  0  0  0  0  0  0  0  0  0  0  0
  -16.1910   -2.7280   -7.2080 C   0  0  0  0  0  0  0  0  0  0  0  0
  -15.5590   -2.4750   -8.6060 C   0  0  0  0  0  0  0  0  0  0  0  0
  -12.3970    0.2490  -10.1800 C   0  0  0  0  0  0  0  0  0  0  0  0
  -11.5700    0.5200  -11.2720 C   0  0  0  0  0  0  0  0  0  0  0  0
   -8.3840    2.0830  -14.5990 C   0  0  0  0  0  0  0  0  0  0  0  0
   -7.5210    2.6590  -15.5480 C   0  0  0  0  0  0  0  0  0  0  0  0
   -7.9620    3.6020  -16.4890 N   0  0  0  0  0  0  0  0  0  0  0  0
   -9.0710    4.4350  -16.5970 C   0  0  0  0  0  0  0  0  0  0  0  0
  -10.1190    4.3460  -15.7690 N   0  0  0  0  0  0  0  0  0  0  0  0
  -11.1380    5.1970  -15.9720 C   0  0  0  0  0  0  0  0  0  0  0  0
  -11.1570    6.1330  -16.9750 C   0  0  0  0  0  0  0  0  0  0  0  0
  -10.0480    6.1660  -17.7940 C   0  0  0  0  0  0  0  0  0  0  0  0
   -9.9020    7.1100  -18.9160 C   0  0  0  0  0  0  0  0  0  0  0  0
   -9.4350    8.4190  -18.7220 C   0  0  0  0  0  0  0  0  0  0  0  0
   -9.3100    9.3010  -19.7950 C   0  0  0  0  0  0  0  0  0  0  0  0
   -9.6570    8.8500  -21.0560 C   0  0  0  0  0  0  0  0  0  0  0  0
  -10.1060    7.6030  -21.3030 N   0  0  0  0  0  0  0  0  0  0  0  0
  -10.2080    6.7710  -20.2360 C   0  0  0  0  0  0  0  0  0  0  0  0
   -9.0050    5.3250  -17.6020 N   0  0  0  0  0  0  0  0  0  0  0  0
   -4.3289    3.2448  -15.9794 H   0  0  0  0  0  0  0  0  0  0  0  0
   -4.7905    1.9714  -17.1593 H   0  0  0  0  0  0  0  0  0  0  0  0
   -5.6487    3.5494  -17.1593 H   0  0  0  0  0  0  0  0  0  0  0  0
   -4.6798    0.9727  -14.6127 H   0  0  0  0  0  0  0  0  0  0  0  0
   -6.2527   -0.0053  -12.9541 H   0  0  0  0  0  0  0  0  0  0  0  0
   -8.7360    0.8250  -11.7880 H   0  0  0  0  0  0  0  0  0  0  0  0
  -10.3806   -2.6301  -11.8633 H   0  0  0  0  0  0  0  0  0  0  0  0
  -11.8623   -3.1150   -9.9186 H   0  0  0  0  0  0  0  0  0  0  0  0
  -13.2330   -2.3950   -8.1806 H   0  0  0  0  0  0  0  0  0  0  0  0
  -13.1483   -0.6356   -7.7070 H   0  0  0  0  0  0  0  0  0  0  0  0
  -14.8934    0.7573   -8.0140 H   0  0  0  0  0  0  0  0  0  0  0  0
  -16.5134   -0.0871   -8.2593 H   0  0  0  0  0  0  0  0  0  0  0  0
  -14.6894   -0.0722   -5.9011 H   0  0  0  0  0  0  0  0  0  0  0  0
  -16.5142   -0.1698   -6.0446 H   0  0  0  0  0  0  0  0  0  0  0  0
  -15.3937   -1.9229   -4.0411 H   0  0  0  0  0  0  0  0  0  0  0  0
  -17.0523   -1.8047   -4.7207 H   0  0  0  0  0  0  0  0  0  0  0  0
  -16.1919   -3.3816   -4.7207 H   0  0  0  0  0  0  0  0  0  0  0  0
  -16.1320   -3.8035   -6.9849 H   0  0  0  0  0  0  0  0  0  0  0  0
  -17.2325   -2.3761   -7.2465 H   0  0  0  0  0  0  0  0  0  0  0  0
  -14.8414   -3.2861   -8.7991 H   0  0  0  0  0  0  0  0  0  0  0  0
  -16.4080   -2.4367   -9.3043 H   0  0  0  0  0  0  0  0  0  0  0  0
  -12.9577    1.0662   -9.7028 H   0  0  0  0  0  0  0  0  0  0  0  0
  -11.4764    1.5504  -11.6456 H   0  0  0  0  0  0  0  0  0  0  0  0
   -9.4407    2.3884  -14.5894 H   0  0  0  0  0  0  0  0  0  0  0  0
   -7.3610    3.7750  -17.2810 H   0  0  0  0  0  0  0  0  0  0  0  0
  -12.0048    5.1405  -15.2972 H   0  0  0  0  0  0  0  0  0  0  0  0
  -12.0068    6.8168  -17.1175 H   0  0  0  0  0  0  0  0  0  0  0  0
   -9.1639    8.7539  -17.7099 H   0  0  0  0  0  0  0  0  0  0  0  0
   -8.9453   10.3276  -19.6428 H   0  0  0  0  0  0  0  0  0  0  0  0
   -9.5615    9.5461  -21.9024 H   0  0  0  0  0  0  0  0  0  0  0  0
  -10.5603    5.7464  -20.4260 H   0  0  0  0  0  0  0  0  0  0  0  0
  1  2  1  0
  2  3  1  0
  3  4  2  0
  4  5  1  0
  5  6  1  0
  6  7  1  0
  7  8  2  0
  7  9  1  0
  9 10  1  0
 10 11  2  0
 11 12  1  0
 12 13  1  0
 13 14  1  0
 14 15  1  0
 15 16  1  0
 16 17  1  0
 17 18  1  0
 17 19  1  0
 19 20  1  0
 12 21  2  0
 21 22  1  0
  5 23  2  0
 23 24  1  0
 24 25  1  0
 25 26  1  0
 26 27  2  0
 27 28  1  0
 28 29  2  0
 29 30  1  0
 30 31  1  0
 31 32  1  0
 32 33  2  0
 33 34  1  0
 34 35  2  0
 35 36  1  0
 30 37  2  0
 24  2  2  0
 37 26  1  0
 22  9  2  0
 36 31  2  0
 20 14  1  0
  1 38  1  0
  1 39  1  0
  1 40  1  0
  3 41  1  0
  4 42  1  0
  6 43  1  0
 10 44  1  0
 11 45  1  0
 13 46  1  0
 13 47  1  0
 15 48  1  0
 15 49  1  0
 16 50  1  0
 16 51  1  0
 18 52  1  0
 18 53  1  0
 18 54  1  0
 19 55  1  0
 19 56  1  0
 20 57  1  0
 20 58  1  0
 21 59  1  0
 22 60  1  0
 23 61  1  0
 25 62  1  0
 28 63  1  0
 29 64  1  0
 32 65  1  0
 33 66  1  0
 34 67  1  0
 36 68  1  0
M  END
>  <meeko>  (6) 
{"is_sidechain": false}

>  <vina_affinity_kcal_mol>  (6) 
-9.394

>  <pose_rank>  (6) 
6

$$$$

     RDKit          3D

 68 72  0  0  0  0  0  0  0  0999 V2000
   -4.7610    2.0090  -16.6650 C   0  0  0  0  0  0  0  0  0  0  0  0
   -5.8060    1.5890  -15.6630 C   0  0  0  0  0  0  0  0  0  0  0  0
   -5.4730    0.5870  -14.7370 C   0  0  0  0  0  0  0  0  0  0  0  0
   -6.3970    0.1490  -13.7870 C   0  0  0  0  0  0  0  0  0  0  0  0
   -7.6690    0.7040  -13.7470 C   0  0  0  0  0  0  0  0  0  0  0  0
   -8.6700    0.3180  -12.8300 N   0  0  0  0  0  0  0  0  0  0  0  0
   -9.9300   -0.1750  -13.1170 C   0  0  0  0  0  0  0  0  0  0  0  0
  -10.3850   -0.4340  -14.2240 O   0  0  0  0  0  0  0  0  0  0  0  0
  -10.7790   -0.4470  -11.9220 C   0  0  0  0  0  0  0  0  0  0  0  0
  -10.8370   -1.7160  -11.3330 C   0  0  0  0  0  0  0  0  0  0  0  0
  -11.6510   -1.9300  -10.2170 C   0  0  0  0  0  0  0  0  0  0  0  0
  -12.4080   -0.8810   -9.6720 C   0  0  0  0  0  0  0  0  0  0  0  0
  -13.2830   -1.1170   -8.4560 C   0  0  0  0  0  0  0  0  0  0  0  0
  -14.7250   -0.9970   -8.7480 N   0  0  0  0  0  0  0  0  0  0  0  0
  -15.4390   -0.2430   -7.6960 C   0  0  0  0  0  0  0  0  0  0  0  0
  -15.5020   -0.9290   -6.3040 C   0  0  0  0  0  0  0  0  0  0  0  0
  -15.3600   -2.3970   -6.3440 N   0  0  0  0  0  0  0  0  0  0  0  0
  -15.9090   -3.0180   -5.1450 C   0  0  0  0  0  0  0  0  0  0  0  0
  -15.9660   -2.9360   -7.5690 C   0  0  0  0  0  0  0  0  0  0  0  0
  -15.3400   -2.3420   -8.8620 C   0  0  0  0  0  0  0  0  0  0  0  0
  -12.3270    0.3920  -10.2560 C   0  0  0  0  0  0  0  0  0  0  0  0
  -11.5140    0.6070  -11.3710 C   0  0  0  0  0  0  0  0  0  0  0  0
   -8.0030    1.7050  -14.6740 C   0  0  0  0  0  0  0  0  0  0  0  0
   -7.0930    2.1710  -15.6390 C   0  0  0  0  0  0  0  0  0  0  0  0
   -7.4310    3.1640  -16.5720 N   0  0  0  0  0  0  0  0  0  0  0  0
   -8.4100    4.1490  -16.6430 C   0  0  0  0  0  0  0  0  0  0  0  0
   -8.2600    5.2600  -17.3760 N   0  0  0  0  0  0  0  0  0  0  0  0
   -9.2680    6.1470  -17.3640 C   0  0  0  0  0  0  0  0  0  0  0  0
  -10.4230    5.9730  -16.6440 C   0  0  0  0  0  0  0  0  0  0  0  0
  -10.5090    4.8100  -15.9080 C   0  0  0  0  0  0  0  0  0  0  0  0
  -11.6790    4.4630  -15.0820 C   0  0  0  0  0  0  0  0  0  0  0  0
  -11.5720    3.6110  -13.9720 C   0  0  0  0  0  0  0  0  0  0  0  0
  -12.6920    3.2890  -13.2060 C   0  0  0  0  0  0  0  0  0  0  0  0
  -13.9110    3.8330  -13.5680 C   0  0  0  0  0  0  0  0  0  0  0  0
  -14.0730    4.6620  -14.6190 N   0  0  0  0  0  0  0  0  0  0  0  0
  -12.9600    4.9580  -15.3370 C   0  0  0  0  0  0  0  0  0  0  0  0
   -9.5100    3.8970  -15.9130 N   0  0  0  0  0  0  0  0  0  0  0  0
   -3.8672    2.3682  -16.1339 H   0  0  0  0  0  0  0  0  0  0  0  0
   -4.4917    1.1493  -17.2961 H   0  0  0  0  0  0  0  0  0  0  0  0
   -5.1616    2.8160  -17.2961 H   0  0  0  0  0  0  0  0  0  0  0  0
   -4.4681    0.1403  -14.7608 H   0  0  0  0  0  0  0  0  0  0  0  0
   -6.1172   -0.6364  -13.0695 H   0  0  0  0  0  0  0  0  0  0  0  0
   -8.3980    0.3500  -11.8550 H   0  0  0  0  0  0  0  0  0  0  0  0
  -10.2428   -2.5434  -11.7480 H   0  0  0  0  0  0  0  0  0  0  0  0
  -11.6988   -2.9301   -9.7614 H   0  0  0  0  0  0  0  0  0  0  0  0
  -13.0862   -2.1297   -8.0744 H   0  0  0  0  0  0  0  0  0  0  0  0
  -13.0326   -0.3422   -7.7164 H   0  0  0  0  0  0  0  0  0  0  0  0
  -14.9343    0.7266   -7.5729 H   0  0  0  0  0  0  0  0  0  0  0  0
  -16.4811   -0.1617   -8.0388 H   0  0  0  0  0  0  0  0  0  0  0  0
  -14.6916   -0.5213   -5.6819 H   0  0  0  0  0  0  0  0  0  0  0  0
  -16.5014   -0.7201   -5.8946 H   0  0  0  0  0  0  0  0  0  0  0  0
  -15.4821   -2.5351   -4.2536 H   0  0  0  0  0  0  0  0  0  0  0  0
  -17.0025   -2.8989   -5.1383 H   0  0  0  0  0  0  0  0  0  0  0  0
  -15.6567   -4.0887   -5.1383 H   0  0  0  0  0  0  0  0  0  0  0  0
  -15.8260   -4.0270   -7.5798 H   0  0  0  0  0  0  0  0  0  0  0  0
  -17.0312   -2.6615   -7.5602 H   0  0  0  0  0  0  0  0  0  0  0  0
  -14.5594   -3.0374   -9.2041 H   0  0  0  0  0  0  0  0  0  0  0  0
  -16.1817   -2.2166   -9.5591 H   0  0  0  0  0  0  0  0  0  0  0  0
  -12.9071    1.2255   -9.8333 H   0  0  0  0  0  0  0  0  0  0  0  0
  -11.4516    1.6102  -11.8178 H   0  0  0  0  0  0  0  0  0  0  0  0
   -9.0129    2.1400  -14.6438 H   0  0  0  0  0  0  0  0  0  0  0  0
   -6.8450    3.2440  -17.3890 H   0  0  0  0  0  0  0  0  0  0  0  0
   -9.1621    7.0629  -17.9640 H   0  0  0  0  0  0  0  0  0  0  0  0
  -11.2328    6.7175  -16.6533 H   0  0  0  0  0  0  0  0  0  0  0  0
  -10.5915    3.1915  -13.7025 H   0  0  0  0  0  0  0  0  0  0  0  0
  -12.6081    2.6200  -12.3368 H   0  0  0  0  0  0  0  0  0  0  0  0
  -14.7953    3.5757  -12.9665 H   0  0  0  0  0  0  0  0  0  0  0  0
  -13.0762    5.6437  -16.1893 H   0  0  0  0  0  0  0  0  0  0  0  0
  1  2  1  0
  2  3  1  0
  3  4  2  0
  4  5  1  0
  5  6  1  0
  6  7  1  0
  7  8  2  0
  7  9  1  0
  9 10  1  0
 10 11  2  0
 11 12  1  0
 12 13  1  0
 13 14  1  0
 14 15  1  0
 15 16  1  0
 16 17  1  0
 17 18  1  0
 17 19  1  0
 19 20  1  0
 12 21  2  0
 21 22  1  0
  5 23  2  0
 23 24  1  0
 24 25  1  0
 25 26  1  0
 26 27  2  0
 27 28  1  0
 28 29  2  0
 29 30  1  0
 30 31  1  0
 31 32  1  0
 32 33  2  0
 33 34  1  0
 34 35  2  0
 35 36  1  0
 30 37  2  0
 24  2  2  0
 37 26  1  0
 22  9  2  0
 36 31  2  0
 20 14  1  0
  1 38  1  0
  1 39  1  0
  1 40  1  0
  3 41  1  0
  4 42  1  0
  6 43  1  0
 10 44  1  0
 11 45  1  0
 13 46  1  0
 13 47  1  0
 15 48  1  0
 15 49  1  0
 16 50  1  0
 16 51  1  0
 18 52  1  0
 18 53  1  0
 18 54  1  0
 19 55  1  0
 19 56  1  0
 20 57  1  0
 20 58  1  0
 21 59  1  0
 22 60  1  0
 23 61  1  0
 25 62  1  0
 28 63  1  0
 29 64  1  0
 32 65  1  0
 33 66  1  0
 34 67  1  0
 36 68  1  0
M  END
>  <meeko>  (7) 
{"is_sidechain": false}

>  <vina_affinity_kcal_mol>  (7) 
-9.364

>  <pose_rank>  (7) 
7

$$$$

     RDKit          3D

 68 72  0  0  0  0  0  0  0  0999 V2000
   -6.9540    4.3470  -17.7490 C   0  0  0  0  0  0  0  0  0  0  0  0
   -7.8610    3.7600  -16.7000 C   0  0  0  0  0  0  0  0  0  0  0  0
   -9.2290    4.0810  -16.7510 C   0  0  0  0  0  0  0  0  0  0  0  0
  -10.1210    3.5750  -15.8040 C   0  0  0  0  0  0  0  0  0  0  0  0
   -9.6650    2.7410  -14.7930 C   0  0  0  0  0  0  0  0  0  0  0  0
  -10.4920    2.1930  -13.7890 N   0  0  0  0  0  0  0  0  0  0  0  0
  -11.6440    2.7390  -13.2550 C   0  0  0  0  0  0  0  0  0  0  0  0
  -12.2010    3.7720  -13.6070 O   0  0  0  0  0  0  0  0  0  0  0  0
  -12.2690    1.9350  -12.1660 C   0  0  0  0  0  0  0  0  0  0  0  0
  -11.5490    0.9610  -11.4630 C   0  0  0  0  0  0  0  0  0  0  0  0
  -12.1750    0.2260  -10.4530 C   0  0  0  0  0  0  0  0  0  0  0  0
  -13.5200    0.4580  -10.1270 C   0  0  0  0  0  0  0  0  0  0  0  0
  -14.1920   -0.3380   -9.0240 C   0  0  0  0  0  0  0  0  0  0  0  0
  -13.9240   -1.7870   -9.1090 N   0  0  0  0  0  0  0  0  0  0  0  0
  -15.1560   -2.5610   -9.3630 C   0  0  0  0  0  0  0  0  0  0  0  0
  -16.2050   -2.5470   -8.2180 C   0  0  0  0  0  0  0  0  0  0  0  0
  -15.6420   -2.2670   -6.8830 N   0  0  0  0  0  0  0  0  0  0  0  0
  -16.5210   -2.7450   -5.8230 C   0  0  0  0  0  0  0  0  0  0  0  0
  -14.2890   -2.8280   -6.7700 C   0  0  0  0  0  0  0  0  0  0  0  0
  -13.3150   -2.2710   -7.8470 C   0  0  0  0  0  0  0  0  0  0  0  0
  -14.2270    1.4510  -10.8220 C   0  0  0  0  0  0  0  0  0  0  0  0
  -13.6040    2.1870  -11.8320 C   0  0  0  0  0  0  0  0  0  0  0  0
   -8.2980    2.4230  -14.7400 C   0  0  0  0  0  0  0  0  0  0  0  0
   -7.3740    2.9110  -15.6810 C   0  0  0  0  0  0  0  0  0  0  0  0
   -6.0070    2.6010  -15.6220 N   0  0  0  0  0  0  0  0  0  0  0  0
   -5.2230    1.5420  -16.0700 C   0  0  0  0  0  0  0  0  0  0  0  0
   -4.2750    1.6950  -17.0040 N   0  0  0  0  0  0  0  0  0  0  0  0
   -3.5850    0.6010  -17.3650 C   0  0  0  0  0  0  0  0  0  0  0  0
   -3.8050   -0.6450  -16.8360 C   0  0  0  0  0  0  0  0  0  0  0  0
   -4.7990   -0.7310  -15.8830 C   0  0  0  0  0  0  0  0  0  0  0  0
   -5.1630   -1.9910  -15.2100 C   0  0  0  0  0  0  0  0  0  0  0  0
   -4.7810   -3.2390  -15.7250 C   0  0  0  0  0  0  0  0  0  0  0  0
   -5.1400   -4.4210  -15.0780 C   0  0  0  0  0  0  0  0  0  0  0  0
   -5.8820   -4.3300  -13.9140 C   0  0  0  0  0  0  0  0  0  0  0  0
   -6.2730   -3.1600  -13.3700 N   0  0  0  0  0  0  0  0  0  0  0  0
   -5.8990   -2.0310  -14.0240 C   0  0  0  0  0  0  0  0  0  0  0  0
   -5.5010    0.3600  -15.4960 N   0  0  0  0  0  0  0  0  0  0  0  0
   -6.1266    4.8825  -17.2604 H   0  0  0  0  0  0  0  0  0  0  0  0
   -6.5484    3.5397  -18.3765 H   0  0  0  0  0  0  0  0  0  0  0  0
   -7.5244    5.0477  -18.3765 H   0  0  0  0  0  0  0  0  0  0  0  0
   -9.6017    4.7404  -17.5487 H   0  0  0  0  0  0  0  0  0  0  0  0
  -11.1877    3.8379  -15.8593 H   0  0  0  0  0  0  0  0  0  0  0  0
  -10.2340    1.2640  -13.4780 H   0  0  0  0  0  0  0  0  0  0  0  0
  -10.4923    0.7749  -11.7056 H   0  0  0  0  0  0  0  0  0  0  0  0
  -11.6076   -0.5425   -9.9077 H   0  0  0  0  0  0  0  0  0  0  0  0
  -13.8254    0.0294   -8.0542 H   0  0  0  0  0  0  0  0  0  0  0  0
  -15.2776   -0.1985   -9.1340 H   0  0  0  0  0  0  0  0  0  0  0  0
  -15.6338   -2.1505  -10.2648 H   0  0  0  0  0  0  0  0  0  0  0  0
  -14.8373   -3.6087   -9.4665 H   0  0  0  0  0  0  0  0  0  0  0  0
  -16.9533   -1.7735   -8.4456 H   0  0  0  0  0  0  0  0  0  0  0  0
  -16.6359   -3.5581   -8.1728 H   0  0  0  0  0  0  0  0  0  0  0  0
  -16.0796   -2.5049   -4.8445 H   0  0  0  0  0  0  0  0  0  0  0  0
  -17.5025   -2.2564   -5.9123 H   0  0  0  0  0  0  0  0  0  0  0  0
  -16.6443   -3.8344   -5.9123 H   0  0  0  0  0  0  0  0  0  0  0  0
  -13.8893   -2.5843   -5.7746 H   0  0  0  0  0  0  0  0  0  0  0  0
  -14.3666   -3.9145   -6.9231 H   0  0  0  0  0  0  0  0  0  0  0  0
  -12.7667   -1.4300   -7.3975 H   0  0  0  0  0  0  0  0  0  0  0  0
  -12.6869   -3.1257   -8.1384 H   0  0  0  0  0  0  0  0  0  0  0  0
  -15.2788    1.6510  -10.5696 H   0  0  0  0  0  0  0  0  0  0  0  0
  -14.1648    2.9676  -12.3669 H   0  0  0  0  0  0  0  0  0  0  0  0
   -7.9370    1.7684  -13.9330 H   0  0  0  0  0  0  0  0  0  0  0  0
   -5.4000    3.2790  -15.1890 H   0  0  0  0  0  0  0  0  0  0  0  0
   -2.7997    0.7103  -18.1274 H   0  0  0  0  0  0  0  0  0  0  0  0
   -3.2236   -1.5235  -17.1526 H   0  0  0  0  0  0  0  0  0  0  0  0
   -4.1903   -3.2857  -16.6518 H   0  0  0  0  0  0  0  0  0  0  0  0
   -4.8412   -5.3994  -15.4823 H   0  0  0  0  0  0  0  0  0  0  0  0
   -6.1683   -5.2622  -13.4050 H   0  0  0  0  0  0  0  0  0  0  0  0
   -6.2003   -1.0690  -13.5838 H   0  0  0  0  0  0  0  0  0  0  0  0
  1  2  1  0
  2  3  1  0
  3  4  2  0
  4  5  1  0
  5  6  1  0
  6  7  1  0
  7  8  2  0
  7  9  1  0
  9 10  1  0
 10 11  2  0
 11 12  1  0
 12 13  1  0
 13 14  1  0
 14 15  1  0
 15 16  1  0
 16 17  1  0
 17 18  1  0
 17 19  1  0
 19 20  1  0
 12 21  2  0
 21 22  1  0
  5 23  2  0
 23 24  1  0
 24 25  1  0
 25 26  1  0
 26 27  2  0
 27 28  1  0
 28 29  2  0
 29 30  1  0
 30 31  1  0
 31 32  1  0
 32 33  2  0
 33 34  1  0
 34 35  2  0
 35 36  1  0
 30 37  2  0
 24  2  2  0
 37 26  1  0
 22  9  2  0
 36 31  2  0
 20 14  1  0
  1 38  1  0
  1 39  1  0
  1 40  1  0
  3 41  1  0
  4 42  1  0
  6 43  1  0
 10 44  1  0
 11 45  1  0
 13 46  1  0
 13 47  1  0
 15 48  1  0
 15 49  1  0
 16 50  1  0
 16 51  1  0
 18 52  1  0
 18 53  1  0
 18 54  1  0
 19 55  1  0
 19 56  1  0
 20 57  1  0
 20 58  1  0
 21 59  1  0
 22 60  1  0
 23 61  1  0
 25 62  1  0
 28 63  1  0
 29 64  1  0
 32 65  1  0
 33 66  1  0
 34 67  1  0
 36 68  1  0
M  END
>  <meeko>  (8) 
{"is_sidechain": false}

>  <vina_affinity_kcal_mol>  (8) 
-9.097

>  <pose_rank>  (8) 
8

$$$$

     RDKit          3D

 68 72  0  0  0  0  0  0  0  0999 V2000
   -7.0670    1.7470  -17.6730 C   0  0  0  0  0  0  0  0  0  0  0  0
   -8.0550    1.5560  -16.5520 C   0  0  0  0  0  0  0  0  0  0  0  0
   -8.8770    2.6400  -16.1990 C   0  0  0  0  0  0  0  0  0  0  0  0
   -9.8080    2.5300  -15.1660 C   0  0  0  0  0  0  0  0  0  0  0  0
   -9.9360    1.3370  -14.4680 C   0  0  0  0  0  0  0  0  0  0  0  0
  -10.8410    1.1370  -13.4040 N   0  0  0  0  0  0  0  0  0  0  0  0
  -11.7240    2.0550  -12.8660 C   0  0  0  0  0  0  0  0  0  0  0  0
  -11.9340    3.1950  -13.2630 O   0  0  0  0  0  0  0  0  0  0  0  0
  -12.5180    1.5530  -11.7080 C   0  0  0  0  0  0  0  0  0  0  0  0
  -13.8660    1.8910  -11.5370 C   0  0  0  0  0  0  0  0  0  0  0  0
  -14.5720    1.4020  -10.4340 C   0  0  0  0  0  0  0  0  0  0  0  0
  -13.9460    0.5660   -9.4970 C   0  0  0  0  0  0  0  0  0  0  0  0
  -14.7200    0.0320   -8.3060 C   0  0  0  0  0  0  0  0  0  0  0  0
  -14.1900   -1.2480   -7.7970 N   0  0  0  0  0  0  0  0  0  0  0  0
  -14.9140   -2.4060   -8.3590 C   0  0  0  0  0  0  0  0  0  0  0  0
  -16.4010   -2.5400   -7.9300 C   0  0  0  0  0  0  0  0  0  0  0  0
  -16.7260   -1.8780   -6.6520 N   0  0  0  0  0  0  0  0  0  0  0  0
  -17.9370   -2.4300   -6.0590 C   0  0  0  0  0  0  0  0  0  0  0  0
  -15.5820   -1.9500   -5.7340 C   0  0  0  0  0  0  0  0  0  0  0  0
  -14.2980   -1.2970   -6.3190 C   0  0  0  0  0  0  0  0  0  0  0  0
  -12.6010    0.2150   -9.6890 C   0  0  0  0  0  0  0  0  0  0  0  0
  -11.8940    0.7020  -10.7900 C   0  0  0  0  0  0  0  0  0  0  0  0
   -9.1130    0.2540  -14.8190 C   0  0  0  0  0  0  0  0  0  0  0  0
   -8.1690    0.3300  -15.8580 C   0  0  0  0  0  0  0  0  0  0  0  0
   -7.3410   -0.7490  -16.2020 N   0  0  0  0  0  0  0  0  0  0  0  0
   -6.2530   -1.3780  -15.6050 C   0  0  0  0  0  0  0  0  0  0  0  0
   -5.3490   -0.7130  -14.8750 N   0  0  0  0  0  0  0  0  0  0  0  0
   -4.3360   -1.4220  -14.3530 C   0  0  0  0  0  0  0  0  0  0  0  0
   -4.1830   -2.7730  -14.5340 C   0  0  0  0  0  0  0  0  0  0  0  0
   -5.1470   -3.3950  -15.3000 C   0  0  0  0  0  0  0  0  0  0  0  0
   -5.1370   -4.8390  -15.5910 C   0  0  0  0  0  0  0  0  0  0  0  0
   -3.9790   -5.4940  -16.0370 C   0  0  0  0  0  0  0  0  0  0  0  0
   -3.9910   -6.8610  -16.3130 C   0  0  0  0  0  0  0  0  0  0  0  0
   -5.1740   -7.5550  -16.1350 C   0  0  0  0  0  0  0  0  0  0  0  0
   -6.3150   -6.9810  -15.7030 N   0  0  0  0  0  0  0  0  0  0  0  0
   -6.2640   -5.6500  -15.4370 C   0  0  0  0  0  0  0  0  0  0  0  0
   -6.1820   -2.7010  -15.8280 N   0  0  0  0  0  0  0  0  0  0  0  0
   -6.0688    1.9400  -17.2531 H   0  0  0  0  0  0  0  0  0  0  0  0
   -7.0349    0.8384  -18.2923 H   0  0  0  0  0  0  0  0  0  0  0  0
   -7.3759    2.6021  -18.2923 H   0  0  0  0  0  0  0  0  0  0  0  0
   -8.7848    3.5900  -16.7458 H   0  0  0  0  0  0  0  0  0  0  0  0
  -10.4418    3.3901  -14.9041 H   0  0  0  0  0  0  0  0  0  0  0  0
  -10.8830    0.1920  -13.0450 H   0  0  0  0  0  0  0  0  0  0  0  0
  -14.3685    2.5401  -12.2692 H   0  0  0  0  0  0  0  0  0  0  0  0
  -15.6289    1.6754  -10.2993 H   0  0  0  0  0  0  0  0  0  0  0  0
  -14.6746    0.7760   -7.4970 H   0  0  0  0  0  0  0  0  0  0  0  0
  -15.7518   -0.1505   -8.6408 H   0  0  0  0  0  0  0  0  0  0  0  0
  -14.8841   -2.3242   -9.4555 H   0  0  0  0  0  0  0  0  0  0  0  0
  -14.4056   -3.2987   -7.9658 H   0  0  0  0  0  0  0  0  0  0  0  0
  -17.0281   -2.0961   -8.7172 H   0  0  0  0  0  0  0  0  0  0  0  0
  -16.5920   -3.6137   -7.7862 H   0  0  0  0  0  0  0  0  0  0  0  0
  -17.8577   -2.3938   -4.9625 H   0  0  0  0  0  0  0  0  0  0  0  0
  -18.8063   -1.8392   -6.3834 H   0  0  0  0  0  0  0  0  0  0  0  0
  -18.0613   -3.4737   -6.3834 H   0  0  0  0  0  0  0  0  0  0  0  0
  -15.8467   -1.4306   -4.8012 H   0  0  0  0  0  0  0  0  0  0  0  0
  -15.3629   -3.0139   -5.5607 H   0  0  0  0  0  0  0  0  0  0  0  0
  -14.2507   -0.2629   -5.9469 H   0  0  0  0  0  0  0  0  0  0  0  0
  -13.4700   -1.9420   -5.9899 H   0  0  0  0  0  0  0  0  0  0  0  0
  -12.1007   -0.4479   -8.9677 H   0  0  0  0  0  0  0  0  0  0  0  0
  -10.8421    0.4153  -10.9361 H   0  0  0  0  0  0  0  0  0  0  0  0
   -9.2108   -0.6884  -14.2602 H   0  0  0  0  0  0  0  0  0  0  0  0
   -7.5520   -1.2350  -17.0590 H   0  0  0  0  0  0  0  0  0  0  0  0
   -3.5875   -0.8906  -13.7469 H   0  0  0  0  0  0  0  0  0  0  0  0
   -3.3411   -3.3278  -14.0942 H   0  0  0  0  0  0  0  0  0  0  0  0
   -3.0492   -4.9216  -16.1707 H   0  0  0  0  0  0  0  0  0  0  0  0
   -3.0831   -7.3739  -16.6632 H   0  0  0  0  0  0  0  0  0  0  0  0
   -5.1846   -8.6322  -16.3576 H   0  0  0  0  0  0  0  0  0  0  0  0
   -7.1845   -5.1720  -15.0707 H   0  0  0  0  0  0  0  0  0  0  0  0
  1  2  1  0
  2  3  1  0
  3  4  2  0
  4  5  1  0
  5  6  1  0
  6  7  1  0
  7  8  2  0
  7  9  1  0
  9 10  1  0
 10 11  2  0
 11 12  1  0
 12 13  1  0
 13 14  1  0
 14 15  1  0
 15 16  1  0
 16 17  1  0
 17 18  1  0
 17 19  1  0
 19 20  1  0
 12 21  2  0
 21 22  1  0
  5 23  2  0
 23 24  1  0
 24 25  1  0
 25 26  1  0
 26 27  2  0
 27 28  1  0
 28 29  2  0
 29 30  1  0
 30 31  1  0
 31 32  1  0
 32 33  2  0
 33 34  1  0
 34 35  2  0
 35 36  1  0
 30 37  2  0
 24  2  2  0
 37 26  1  0
 22  9  2  0
 36 31  2  0
 20 14  1  0
  1 38  1  0
  1 39  1  0
  1 40  1  0
  3 41  1  0
  4 42  1  0
  6 43  1  0
 10 44  1  0
 11 45  1  0
 13 46  1  0
 13 47  1  0
 15 48  1  0
 15 49  1  0
 16 50  1  0
 16 51  1  0
 18 52  1  0
 18 53  1  0
 18 54  1  0
 19 55  1  0
 19 56  1  0
 20 57  1  0
 20 58  1  0
 21 59  1  0
 22 60  1  0
 23 61  1  0
 25 62  1  0
 28 63  1  0
 29 64  1  0
 32 65  1  0
 33 66  1  0
 34 67  1  0
 36 68  1  0
M  END
>  <meeko>  (9) 
{"is_sidechain": false}

>  <vina_affinity_kcal_mol>  (9) 
-8.969

>  <pose_rank>  (9) 
9

$$$$

     RDKit          3D

 68 72  0  0  0  0  0  0  0  0999 V2000
   -5.8310    1.3410  -18.0330 C   0  0  0  0  0  0  0  0  0  0  0  0
   -6.5700    0.9760  -16.7710 C   0  0  0  0  0  0  0  0  0  0  0  0
   -6.3440   -0.2940  -16.2140 C   0  0  0  0  0  0  0  0  0  0  0  0
   -7.0010   -0.6970  -15.0500 C   0  0  0  0  0  0  0  0  0  0  0  0
   -7.8930    0.1620  -14.4230 C   0  0  0  0  0  0  0  0  0  0  0  0
   -8.6090   -0.1620  -13.2510 N   0  0  0  0  0  0  0  0  0  0  0  0
   -9.9590   -0.4360  -13.1370 C   0  0  0  0  0  0  0  0  0  0  0  0
  -10.7740   -0.5160  -14.0480 O   0  0  0  0  0  0  0  0  0  0  0  0
  -10.4280   -0.6970  -11.7450 C   0  0  0  0  0  0  0  0  0  0  0  0
   -9.8440   -1.6860  -10.9450 C   0  0  0  0  0  0  0  0  0  0  0  0
  -10.3170   -1.9020   -9.6480 C   0  0  0  0  0  0  0  0  0  0  0  0
  -11.3690   -1.1290   -9.1310 C   0  0  0  0  0  0  0  0  0  0  0  0
  -11.8730   -1.3620   -7.7200 C   0  0  0  0  0  0  0  0  0  0  0  0
  -12.9880   -0.4700   -7.3480 N   0  0  0  0  0  0  0  0  0  0  0  0
  -12.5470    0.6200   -6.4530 C   0  0  0  0  0  0  0  0  0  0  0  0
  -12.0720    0.1790   -5.0420 C   0  0  0  0  0  0  0  0  0  0  0  0
  -12.6250   -1.1130   -4.5920 N   0  0  0  0  0  0  0  0  0  0  0  0
  -12.5700   -1.2400   -3.1410 C   0  0  0  0  0  0  0  0  0  0  0  0
  -13.9870   -1.2950   -5.1100 C   0  0  0  0  0  0  0  0  0  0  0  0
  -14.0550   -1.2390   -6.6620 C   0  0  0  0  0  0  0  0  0  0  0  0
  -11.9330   -0.1250   -9.9330 C   0  0  0  0  0  0  0  0  0  0  0  0
  -11.4610    0.0920  -11.2300 C   0  0  0  0  0  0  0  0  0  0  0  0
   -8.1210    1.4310  -14.9810 C   0  0  0  0  0  0  0  0  0  0  0  0
   -7.4720    1.8680  -16.1490 C   0  0  0  0  0  0  0  0  0  0  0  0
   -7.7060    3.1320  -16.7110 N   0  0  0  0  0  0  0  0  0  0  0  0
   -8.7280    4.0720  -16.6170 C   0  0  0  0  0  0  0  0  0  0  0  0
   -8.7010    5.2310  -17.2860 N   0  0  0  0  0  0  0  0  0  0  0  0
   -9.7390    6.0660  -17.1120 C   0  0  0  0  0  0  0  0  0  0  0  0
  -10.8030    5.7940  -16.2910 C   0  0  0  0  0  0  0  0  0  0  0  0
  -10.7640    4.5840  -15.6290 C   0  0  0  0  0  0  0  0  0  0  0  0
  -11.8260    4.1320  -14.7130 C   0  0  0  0  0  0  0  0  0  0  0  0
  -11.5890    3.1520  -13.7360 C   0  0  0  0  0  0  0  0  0  0  0  0
  -12.6080    2.7320  -12.8820 C   0  0  0  0  0  0  0  0  0  0  0  0
  -13.8580    3.3080  -13.0220 C   0  0  0  0  0  0  0  0  0  0  0  0
  -14.1420    4.2560  -13.9370 N   0  0  0  0  0  0  0  0  0  0  0  0
  -13.1240    4.6450  -14.7460 C   0  0  0  0  0  0  0  0  0  0  0  0
   -9.7330    3.7230  -15.7960 N   0  0  0  0  0  0  0  0  0  0  0  0
   -4.8727    1.8143  -17.7729 H   0  0  0  0  0  0  0  0  0  0  0  0
   -5.6428    0.4323  -18.6235 H   0  0  0  0  0  0  0  0  0  0  0  0
   -6.4382    2.0428  -18.6235 H   0  0  0  0  0  0  0  0  0  0  0  0
   -5.6382   -0.9816  -16.7029 H   0  0  0  0  0  0  0  0  0  0  0  0
   -6.8117   -1.6957  -14.6296 H   0  0  0  0  0  0  0  0  0  0  0  0
   -8.0450   -0.2650  -12.4160 H   0  0  0  0  0  0  0  0  0  0  0  0
   -9.0139   -2.2923  -11.3367 H   0  0  0  0  0  0  0  0  0  0  0  0
   -9.8605   -2.6857   -9.0256 H   0  0  0  0  0  0  0  0  0  0  0  0
  -12.2163   -2.4039   -7.6386 H   0  0  0  0  0  0  0  0  0  0  0  0
  -11.0395   -1.1478   -7.0349 H   0  0  0  0  0  0  0  0  0  0  0  0
  -11.7125    1.1433   -6.9428 H   0  0  0  0  0  0  0  0  0  0  0  0
  -13.4327    1.2512   -6.2886 H   0  0  0  0  0  0  0  0  0  0  0  0
  -10.9751    0.0977   -5.0574 H   0  0  0  0  0  0  0  0  0  0  0  0
  -12.4341    0.9402   -4.3353 H   0  0  0  0  0  0  0  0  0  0  0  0
  -12.9664   -0.3246   -2.6775 H   0  0  0  0  0  0  0  0  0  0  0  0
  -13.1752   -2.1026   -2.8252 H   0  0  0  0  0  0  0  0  0  0  0  0
  -11.5268   -1.3887   -2.8252 H   0  0  0  0  0  0  0  0  0  0  0  0
  -14.3614   -2.2743   -4.7771 H   0  0  0  0  0  0  0  0  0  0  0  0
  -14.6014   -0.4692   -4.7221 H   0  0  0  0  0  0  0  0  0  0  0  0
  -14.0131   -2.2730   -7.0350 H   0  0  0  0  0  0  0  0  0  0  0  0
  -14.9892   -0.7054   -6.8915 H   0  0  0  0  0  0  0  0  0  0  0  0
  -12.7515    0.4948   -9.5382 H   0  0  0  0  0  0  0  0  0  0  0  0
  -11.9038    0.8867  -11.8484 H   0  0  0  0  0  0  0  0  0  0  0  0
   -8.8333    2.1074  -14.4859 H   0  0  0  0  0  0  0  0  0  0  0  0
   -6.9890    3.5070  -17.3120 H   0  0  0  0  0  0  0  0  0  0  0  0
   -9.7351    7.0207  -17.6584 H   0  0  0  0  0  0  0  0  0  0  0  0
  -11.6384    6.4989  -16.1674 H   0  0  0  0  0  0  0  0  0  0  0  0
  -10.5861    2.7097  -13.6430 H   0  0  0  0  0  0  0  0  0  0  0  0
  -12.4229    1.9632  -12.1174 H   0  0  0  0  0  0  0  0  0  0  0  0
  -14.6631    2.9745  -12.3507 H   0  0  0  0  0  0  0  0  0  0  0  0
  -13.3391    5.4281  -15.4879 H   0  0  0  0  0  0  0  0  0  0  0  0
  1  2  1  0
  2  3  1  0
  3  4  2  0
  4  5  1  0
  5  6  1  0
  6  7  1  0
  7  8  2  0
  7  9  1  0
  9 10  1  0
 10 11  2  0
 11 12  1  0
 12 13  1  0
 13 14  1  0
 14 15  1  0
 15 16  1  0
 16 17  1  0
 17 18  1  0
 17 19  1  0
 19 20  1  0
 12 21  2  0
 21 22  1  0
  5 23  2  0
 23 24  1  0
 24 25  1  0
 25 26  1  0
 26 27  2  0
 27 28  1  0
 28 29  2  0
 29 30  1  0
 30 31  1  0
 31 32  1  0
 32 33  2  0
 33 34  1  0
 34 35  2  0
 35 36  1  0
 30 37  2  0
 24  2  2  0
 37 26  1  0
 22  9  2  0
 36 31  2  0
 20 14  1  0
  1 38  1  0
  1 39  1  0
  1 40  1  0
  3 41  1  0
  4 42  1  0
  6 43  1  0
 10 44  1  0
 11 45  1  0
 13 46  1  0
 13 47  1  0
 15 48  1  0
 15 49  1  0
 16 50  1  0
 16 51  1  0
 18 52  1  0
 18 53  1  0
 18 54  1  0
 19 55  1  0
 19 56  1  0
 20 57  1  0
 20 58  1  0
 21 59  1  0
 22 60  1  0
 23 61  1  0
 25 62  1  0
 28 63  1  0
 29 64  1  0
 32 65  1  0
 33 66  1  0
 34 67  1  0
 36 68  1  0
M  END
>  <meeko>  (10) 
{"is_sidechain": false}

>  <vina_affinity_kcal_mol>  (10) 
-8.936

>  <pose_rank>  (10) 
10

$$$$
