
     RDKit          3D

 48 50  0  0  0  0  0  0  0  0999 V2000
  -20.1270   -0.0740   -6.5420 C   0  0  0  0  0  0  0  0  0  0  0  0
  -18.7800   -0.5540   -6.6830 N   0  0  0  0  0  0  0  0  0  0  0  0
  -17.7640   -0.1720   -5.8320 C   0  0  0  0  0  0  0  0  0  0  0  0
  -17.9240    0.5270   -4.8390 O   0  0  0  0  0  0  0  0  0  0  0  0
  -16.4090   -0.6750   -6.2280 C   0  0  0  0  0  0  0  0  0  0  0  0
  -16.1450   -0.9670   -7.5580 C   0  0  0  0  0  0  0  0  0  0  0  0
  -14.8790   -1.4510   -7.8680 C   0  0  0  0  0  0  0  0  0  0  0  0
  -14.4730   -1.7510   -9.1510 O   0  0  0  0  0  0  0  0  0  0  0  0
  -13.6740   -0.8370   -9.7960 C   0  0  0  0  0  0  0  0  0  0  0  0
  -12.3790   -1.2330  -10.1150 C   0  0  0  0  0  0  0  0  0  0  0  0
  -11.5260   -0.3580  -10.7990 C   0  0  0  0  0  0  0  0  0  0  0  0
  -11.9720    0.9080  -11.1840 C   0  0  0  0  0  0  0  0  0  0  0  0
  -11.1690    1.8530  -11.8560 N   0  0  0  0  0  0  0  0  0  0  0  0
  -10.9140    1.9250  -13.2180 C   0  0  0  0  0  0  0  0  0  0  0  0
  -11.4510    1.2330  -14.0720 O   0  0  0  0  0  0  0  0  0  0  0  0
   -9.9600    2.9010  -13.4730 N   0  0  0  0  0  0  0  0  0  0  0  0
   -9.5180    3.3570  -14.7310 C   0  0  0  0  0  0  0  0  0  0  0  0
   -8.3790    2.8800  -15.3770 C   0  0  0  0  0  0  0  0  0  0  0  0
   -8.0150    3.3780  -16.6320 C   0  0  0  0  0  0  0  0  0  0  0  0
   -8.7890    4.3570  -17.2580 C   0  0  0  0  0  0  0  0  0  0  0  0
   -8.2700    4.9170  -18.8050 Cl  0  0  0  0  0  0  0  0  0  0  0  0
   -9.9400    4.8480  -16.6370 C   0  0  0  0  0  0  0  0  0  0  0  0
  -10.7980    5.8990  -17.2860 C   0  0  0  0  0  0  0  0  0  0  0  0
  -10.1360    7.0770  -17.4780 F   0  0  0  0  0  0  0  0  0  0  0  0
  -11.8960    6.2230  -16.5490 F   0  0  0  0  0  0  0  0  0  0  0  0
  -11.2500    5.5370  -18.5170 F   0  0  0  0  0  0  0  0  0  0  0  0
  -10.2930    4.3340  -15.3700 C   0  0  0  0  0  0  0  0  0  0  0  0
  -13.2860    1.2890  -10.8730 C   0  0  0  0  0  0  0  0  0  0  0  0
  -14.1400    0.4160  -10.1940 C   0  0  0  0  0  0  0  0  0  0  0  0
  -13.9210   -1.5880   -6.8690 C   0  0  0  0  0  0  0  0  0  0  0  0
  -14.2780   -1.2690   -5.5710 C   0  0  0  0  0  0  0  0  0  0  0  0
  -15.5010   -0.8220   -5.2180 N   0  0  0  0  0  0  0  0  0  0  0  0
  -20.3749    0.0143   -5.4739 H   0  0  0  0  0  0  0  0  0  0  0  0
  -20.2172    0.9116   -7.0221 H   0  0  0  0  0  0  0  0  0  0  0  0
  -20.8201   -0.7805   -7.0221 H   0  0  0  0  0  0  0  0  0  0  0  0
  -18.4930   -1.0480   -7.5250 H   0  0  0  0  0  0  0  0  0  0  0  0
  -16.9076   -0.8213   -8.3372 H   0  0  0  0  0  0  0  0  0  0  0  0
  -12.0247   -2.2345   -9.8296 H   0  0  0  0  0  0  0  0  0  0  0  0
  -10.4978   -0.6700  -11.0346 H   0  0  0  0  0  0  0  0  0  0  0  0
  -10.8760    2.6500  -11.3110 H   0  0  0  0  0  0  0  0  0  0  0  0
   -9.4150    3.1910  -12.6750 H   0  0  0  0  0  0  0  0  0  0  0  0
   -7.7621    2.1064  -14.8964 H   0  0  0  0  0  0  0  0  0  0  0  0
   -7.1118    2.9954  -17.1299 H   0  0  0  0  0  0  0  0  0  0  0  0
  -11.1990    4.7100  -14.8722 H   0  0  0  0  0  0  0  0  0  0  0  0
  -13.6477    2.2854  -11.1668 H   0  0  0  0  0  0  0  0  0  0  0  0
  -15.1754    0.7156   -9.9743 H   0  0  0  0  0  0  0  0  0  0  0  0
  -12.9061   -1.9407   -7.1048 H   0  0  0  0  0  0  0  0  0  0  0  0
  -13.5212   -1.3866   -4.7814 H   0  0  0  0  0  0  0  0  0  0  0  0
  1  2  1  0
  2  3  1  0
  3  4  2  0
  3  5  1  0
  5  6  2  0
  6  7  1  0
  7  8  1  0
  8  9  1  0
  9 10  1  0
 10 11  2  0
 11 12  1  0
 12 13  1  0
 13 14  1  0
 14 15  2  0
 14 16  1  0
 16 17  1  0
 17 18  1  0
 18 19  2  0
 19 20  1  0
 20 21  1  0
 20 22  2  0
 22 23  1  0
 23 24  1  0
 23 25  1  0
 23 26  1  0
 22 27  1  0
 12 28  2  0
 28 29  1  0
  7 30  2  0
 30 31  1  0
 31 32  2  0
 32  5  1  0
 29  9  2  0
 27 17  2  0
  1 33  1  0
  1 34  1  0
  1 35  1  0
  2 36  1  0
  6 37  1  0
 10 38  1  0
 11 39  1  0
 13 40  1  0
 16 41  1  0
 18 42  1  0
 19 43  1  0
 27 44  1  0
 28 45  1  0
 29 46  1  0
 30 47  1  0
 31 48  1  0
M  END
>  <meeko>  (1) 
{"is_sidechain": false}

>  <vina_affinity_kcal_mol>  (1) 
-8.768

>  <pose_rank>  (1) 
1

$$$$

     RDKit          3D

 48 50  0  0  0  0  0  0  0  0999 V2000
   -5.4130   -7.0400  -16.0260 C   0  0  0  0  0  0  0  0  0  0  0  0
   -5.4390   -5.6320  -15.7360 N   0  0  0  0  0  0  0  0  0  0  0  0
   -4.3270   -4.8280  -15.8650 C   0  0  0  0  0  0  0  0  0  0  0  0
   -3.2520   -5.2060  -16.3160 O   0  0  0  0  0  0  0  0  0  0  0  0
   -4.5260   -3.4230  -15.3850 C   0  0  0  0  0  0  0  0  0  0  0  0
   -5.7450   -3.0470  -14.8420 C   0  0  0  0  0  0  0  0  0  0  0  0
   -5.8840   -1.7250  -14.4320 C   0  0  0  0  0  0  0  0  0  0  0  0
   -7.0280   -1.2270  -13.8480 O   0  0  0  0  0  0  0  0  0  0  0  0
   -7.6530   -0.1710  -14.4680 C   0  0  0  0  0  0  0  0  0  0  0  0
   -7.8920   -0.2830  -15.8340 C   0  0  0  0  0  0  0  0  0  0  0  0
   -8.5510    0.7460  -16.5180 C   0  0  0  0  0  0  0  0  0  0  0  0
   -8.9900    1.8820  -15.8350 C   0  0  0  0  0  0  0  0  0  0  0  0
   -9.6420    2.9690  -16.4540 N   0  0  0  0  0  0  0  0  0  0  0  0
   -9.0650    4.1390  -16.9250 C   0  0  0  0  0  0  0  0  0  0  0  0
   -7.8620    4.3590  -16.9780 O   0  0  0  0  0  0  0  0  0  0  0  0
  -10.0520    5.0270  -17.3320 N   0  0  0  0  0  0  0  0  0  0  0  0
   -9.8740    6.2690  -17.9730 C   0  0  0  0  0  0  0  0  0  0  0  0
   -9.4220    7.4200  -17.3290 C   0  0  0  0  0  0  0  0  0  0  0  0
   -9.2600    8.6130  -18.0420 C   0  0  0  0  0  0  0  0  0  0  0  0
   -9.5460    8.6670  -19.4070 C   0  0  0  0  0  0  0  0  0  0  0  0
   -9.3200   10.1770  -20.2110 Cl  0  0  0  0  0  0  0  0  0  0  0  0
   -9.9940    7.5260  -20.0790 C   0  0  0  0  0  0  0  0  0  0  0  0
  -10.3060    7.5500  -21.5500 C   0  0  0  0  0  0  0  0  0  0  0  0
  -10.7280    6.3400  -22.0200 F   0  0  0  0  0  0  0  0  0  0  0  0
   -9.2320    7.8760  -22.3190 F   0  0  0  0  0  0  0  0  0  0  0  0
  -11.2960    8.4250  -21.8740 F   0  0  0  0  0  0  0  0  0  0  0  0
  -10.1510    6.3310  -19.3450 C   0  0  0  0  0  0  0  0  0  0  0  0
   -8.7600    1.9750  -14.4540 C   0  0  0  0  0  0  0  0  0  0  0  0
   -8.1050    0.9480  -13.7690 C   0  0  0  0  0  0  0  0  0  0  0  0
   -4.8110   -0.8470  -14.5380 C   0  0  0  0  0  0  0  0  0  0  0  0
   -3.6320   -1.3150  -15.0910 C   0  0  0  0  0  0  0  0  0  0  0  0
   -3.4600   -2.5800  -15.5280 N   0  0  0  0  0  0  0  0  0  0  0  0
   -5.4025   -7.6082  -15.0842 H   0  0  0  0  0  0  0  0  0  0  0  0
   -6.3063   -7.3111  -16.6078 H   0  0  0  0  0  0  0  0  0  0  0  0
   -4.5103   -7.2779  -16.6078 H   0  0  0  0  0  0  0  0  0  0  0  0
   -6.2330   -5.2200  -15.2510 H   0  0  0  0  0  0  0  0  0  0  0  0
   -6.5707   -3.7665  -14.7393 H   0  0  0  0  0  0  0  0  0  0  0  0
   -7.5629   -1.1810  -16.3774 H   0  0  0  0  0  0  0  0  0  0  0  0
   -8.7240    0.6588  -17.6008 H   0  0  0  0  0  0  0  0  0  0  0  0
  -10.6020    2.8120  -16.7230 H   0  0  0  0  0  0  0  0  0  0  0  0
  -10.9780    4.8320  -16.9830 H   0  0  0  0  0  0  0  0  0  0  0  0
   -9.1913    7.3901  -16.2539 H   0  0  0  0  0  0  0  0  0  0  0  0
   -8.9045    9.5152  -17.5227 H   0  0  0  0  0  0  0  0  0  0  0  0
  -10.4996    5.4254  -19.8631 H   0  0  0  0  0  0  0  0  0  0  0  0
   -9.0989    2.8657  -13.9047 H   0  0  0  0  0  0  0  0  0  0  0  0
   -7.9466    1.0219  -12.6830 H   0  0  0  0  0  0  0  0  0  0  0  0
   -4.8972    0.1933  -14.1910 H   0  0  0  0  0  0  0  0  0  0  0  0
   -2.7871   -0.6162  -15.1794 H   0  0  0  0  0  0  0  0  0  0  0  0
  1  2  1  0
  2  3  1  0
  3  4  2  0
  3  5  1  0
  5  6  2  0
  6  7  1  0
  7  8  1  0
  8  9  1  0
  9 10  1  0
 10 11  2  0
 11 12  1  0
 12 13  1  0
 13 14  1  0
 14 15  2  0
 14 16  1  0
 16 17  1  0
 17 18  1  0
 18 19  2  0
 19 20  1  0
 20 21  1  0
 20 22  2  0
 22 23  1  0
 23 24  1  0
 23 25  1  0
 23 26  1  0
 22 27  1  0
 12 28  2  0
 28 29  1  0
  7 30  2  0
 30 31  1  0
 31 32  2  0
 32  5  1  0
 29  9  2  0
 27 17  2  0
  1 33  1  0
  1 34  1  0
  1 35  1  0
  2 36  1  0
  6 37  1  0
 10 38  1  0
 11 39  1  0
 13 40  1  0
 16 41  1  0
 18 42  1  0
 19 43  1  0
 27 44  1  0
 28 45  1  0
 29 46  1  0
 30 47  1  0
 31 48  1  0
M  END
>  <meeko>  (2) 
{"is_sidechain": false}

>  <vina_affinity_kcal_mol>  (2) 
-8.53

>  <pose_rank>  (2) 
2

$$$$

     RDKit          3D

 48 50  0  0  0  0  0  0  0  0999 V2000
   -7.3660   -0.7140   -7.4990 C   0  0  0  0  0  0  0  0  0  0  0  0
   -6.9990   -0.7520   -8.8890 N   0  0  0  0  0  0  0  0  0  0  0  0
   -5.8050   -1.2850   -9.3250 C   0  0  0  0  0  0  0  0  0  0  0  0
   -4.9970   -1.8510   -8.5980 O   0  0  0  0  0  0  0  0  0  0  0  0
   -5.5510   -1.1050  -10.7910 C   0  0  0  0  0  0  0  0  0  0  0  0
   -6.5350   -1.4440  -11.7070 C   0  0  0  0  0  0  0  0  0  0  0  0
   -6.2400   -1.2770  -13.0560 C   0  0  0  0  0  0  0  0  0  0  0  0
   -7.1350   -1.5440  -14.0680 O   0  0  0  0  0  0  0  0  0  0  0  0
   -7.7400   -0.4730  -14.6830 C   0  0  0  0  0  0  0  0  0  0  0  0
   -7.4660   -0.2730  -16.0330 C   0  0  0  0  0  0  0  0  0  0  0  0
   -8.0730    0.7830  -16.7230 C   0  0  0  0  0  0  0  0  0  0  0  0
   -8.9720    1.6300  -16.0720 C   0  0  0  0  0  0  0  0  0  0  0  0
   -9.6080    2.7260  -16.6910 N   0  0  0  0  0  0  0  0  0  0  0  0
   -9.0440    3.9490  -17.0260 C   0  0  0  0  0  0  0  0  0  0  0  0
   -7.8550    4.2230  -16.9350 O   0  0  0  0  0  0  0  0  0  0  0  0
  -10.0260    4.8180  -17.4810 N   0  0  0  0  0  0  0  0  0  0  0  0
   -9.8440    6.1060  -18.0230 C   0  0  0  0  0  0  0  0  0  0  0  0
   -9.3730    7.1980  -17.2960 C   0  0  0  0  0  0  0  0  0  0  0  0
   -9.2090    8.4420  -17.9130 C   0  0  0  0  0  0  0  0  0  0  0  0
   -9.5100    8.6080  -19.2660 C   0  0  0  0  0  0  0  0  0  0  0  0
   -9.2800   10.1750  -19.9490 Cl  0  0  0  0  0  0  0  0  0  0  0  0
   -9.9770    7.5290  -20.0210 C   0  0  0  0  0  0  0  0  0  0  0  0
  -10.3070    7.6730  -21.4810 C   0  0  0  0  0  0  0  0  0  0  0  0
   -9.2440    8.1040  -22.2220 F   0  0  0  0  0  0  0  0  0  0  0  0
  -11.2970    8.5760  -21.7190 F   0  0  0  0  0  0  0  0  0  0  0  0
  -10.6970    6.5060  -22.0610 F   0  0  0  0  0  0  0  0  0  0  0  0
  -10.1370    6.2800  -19.3830 C   0  0  0  0  0  0  0  0  0  0  0  0
   -9.2540    1.4080  -14.7160 C   0  0  0  0  0  0  0  0  0  0  0  0
   -8.6510    0.3520  -14.0260 C   0  0  0  0  0  0  0  0  0  0  0  0
   -5.0110   -0.7510  -13.4400 C   0  0  0  0  0  0  0  0  0  0  0  0
   -4.0930   -0.4400  -12.4520 C   0  0  0  0  0  0  0  0  0  0  0  0
   -4.3240   -0.6100  -11.1340 N   0  0  0  0  0  0  0  0  0  0  0  0
   -6.4625   -0.8075   -6.8785 H   0  0  0  0  0  0  0  0  0  0  0  0
   -7.8656    0.2407   -7.2776 H   0  0  0  0  0  0  0  0  0  0  0  0
   -8.0506   -1.5461   -7.2776 H   0  0  0  0  0  0  0  0  0  0  0  0
   -7.5260   -0.2190   -9.5770 H   0  0  0  0  0  0  0  0  0  0  0  0
   -7.5115   -1.8302  -11.3795 H   0  0  0  0  0  0  0  0  0  0  0  0
   -6.7718   -0.9455  -16.5582 H   0  0  0  0  0  0  0  0  0  0  0  0
   -7.8401    0.9466  -17.7855 H   0  0  0  0  0  0  0  0  0  0  0  0
  -10.5260    2.5470  -17.0700 H   0  0  0  0  0  0  0  0  0  0  0  0
  -10.9730    4.5610  -17.2460 H   0  0  0  0  0  0  0  0  0  0  0  0
   -9.1287    7.0804  -16.2299 H   0  0  0  0  0  0  0  0  0  0  0  0
   -8.8398    9.2969  -17.3274 H   0  0  0  0  0  0  0  0  0  0  0  0
  -10.5006    5.4219  -19.9674 H   0  0  0  0  0  0  0  0  0  0  0  0
   -9.9566    2.0713  -14.1902 H   0  0  0  0  0  0  0  0  0  0  0  0
   -8.8948    0.1730  -12.9684 H   0  0  0  0  0  0  0  0  0  0  0  0
   -4.7747   -0.5864  -14.5016 H   0  0  0  0  0  0  0  0  0  0  0  0
   -3.1193   -0.0308  -12.7592 H   0  0  0  0  0  0  0  0  0  0  0  0
  1  2  1  0
  2  3  1  0
  3  4  2  0
  3  5  1  0
  5  6  2  0
  6  7  1  0
  7  8  1  0
  8  9  1  0
  9 10  1  0
 10 11  2  0
 11 12  1  0
 12 13  1  0
 13 14  1  0
 14 15  2  0
 14 16  1  0
 16 17  1  0
 17 18  1  0
 18 19  2  0
 19 20  1  0
 20 21  1  0
 20 22  2  0
 22 23  1  0
 23 24  1  0
 23 25  1  0
 23 26  1  0
 22 27  1  0
 12 28  2  0
 28 29  1  0
  7 30  2  0
 30 31  1  0
 31 32  2  0
 32  5  1  0
 29  9  2  0
 27 17  2  0
  1 33  1  0
  1 34  1  0
  1 35  1  0
  2 36  1  0
  6 37  1  0
 10 38  1  0
 11 39  1  0
 13 40  1  0
 16 41  1  0
 18 42  1  0
 19 43  1  0
 27 44  1  0
 28 45  1  0
 29 46  1  0
 30 47  1  0
 31 48  1  0
M  END
>  <meeko>  (3) 
{"is_sidechain": false}

>  <vina_affinity_kcal_mol>  (3) 
-8.518

>  <pose_rank>  (3) 
3

$$$$

     RDKit          3D

 48 50  0  0  0  0  0  0  0  0999 V2000
  -13.3900   -5.2660  -11.2800 C   0  0  0  0  0  0  0  0  0  0  0  0
  -13.0170   -3.9190  -10.9440 N   0  0  0  0  0  0  0  0  0  0  0  0
  -12.5250   -3.5740   -9.7030 C   0  0  0  0  0  0  0  0  0  0  0  0
  -12.2740   -4.3790   -8.8140 O   0  0  0  0  0  0  0  0  0  0  0  0
  -12.3260   -2.1010   -9.5090 C   0  0  0  0  0  0  0  0  0  0  0  0
  -13.0630   -1.2020  -10.2630 C   0  0  0  0  0  0  0  0  0  0  0  0
  -12.8240    0.1530  -10.0590 C   0  0  0  0  0  0  0  0  0  0  0  0
  -13.5070    1.1530  -10.7160 O   0  0  0  0  0  0  0  0  0  0  0  0
  -12.9130    1.7070  -11.8260 C   0  0  0  0  0  0  0  0  0  0  0  0
  -13.6530    2.6390  -12.5480 C   0  0  0  0  0  0  0  0  0  0  0  0
  -13.0930    3.2610  -13.6700 C   0  0  0  0  0  0  0  0  0  0  0  0
  -11.7860    2.9690  -14.0630 C   0  0  0  0  0  0  0  0  0  0  0  0
  -11.1580    3.5360  -15.1920 N   0  0  0  0  0  0  0  0  0  0  0  0
  -11.0800    4.8810  -15.5250 C   0  0  0  0  0  0  0  0  0  0  0  0
  -11.4540    5.8040  -14.8150 O   0  0  0  0  0  0  0  0  0  0  0  0
  -10.5130    5.0270  -16.7850 N   0  0  0  0  0  0  0  0  0  0  0  0
  -10.1580    6.2290  -17.4280 C   0  0  0  0  0  0  0  0  0  0  0  0
   -9.6160    7.3330  -16.7720 C   0  0  0  0  0  0  0  0  0  0  0  0
   -9.2790    8.4870  -17.4870 C   0  0  0  0  0  0  0  0  0  0  0  0
   -9.4750    8.5480  -18.8680 C   0  0  0  0  0  0  0  0  0  0  0  0
   -9.0320   10.0070  -19.6740 Cl  0  0  0  0  0  0  0  0  0  0  0  0
  -10.0090    7.4530  -19.5520 C   0  0  0  0  0  0  0  0  0  0  0  0
  -10.2290    7.4850  -21.0400 C   0  0  0  0  0  0  0  0  0  0  0  0
   -9.0670    7.6290  -21.7430 F   0  0  0  0  0  0  0  0  0  0  0  0
  -11.0190    8.5170  -21.4410 F   0  0  0  0  0  0  0  0  0  0  0  0
  -10.8000    6.3480  -21.5220 F   0  0  0  0  0  0  0  0  0  0  0  0
  -10.3440    6.2970  -18.8160 C   0  0  0  0  0  0  0  0  0  0  0  0
  -11.0440    2.0410  -13.3170 C   0  0  0  0  0  0  0  0  0  0  0  0
  -11.5990    1.4220  -12.1940 C   0  0  0  0  0  0  0  0  0  0  0  0
  -11.9050    0.5610   -9.0980 C   0  0  0  0  0  0  0  0  0  0  0  0
  -11.2180   -0.4110   -8.3930 C   0  0  0  0  0  0  0  0  0  0  0  0
  -11.3970   -1.7370   -8.5760 N   0  0  0  0  0  0  0  0  0  0  0  0
  -13.5498   -5.8432  -10.3573 H   0  0  0  0  0  0  0  0  0  0  0  0
  -14.3184   -5.2531  -11.8699 H   0  0  0  0  0  0  0  0  0  0  0  0
  -12.5872   -5.7325  -11.8699 H   0  0  0  0  0  0  0  0  0  0  0  0
  -13.2780   -3.1440  -11.5500 H   0  0  0  0  0  0  0  0  0  0  0  0
  -13.8085   -1.5466  -10.9948 H   0  0  0  0  0  0  0  0  0  0  0  0
  -14.6785    2.8869  -12.2367 H   0  0  0  0  0  0  0  0  0  0  0  0
  -13.6874    3.9853  -14.2462 H   0  0  0  0  0  0  0  0  0  0  0  0
  -10.5730    2.9150  -15.7300 H   0  0  0  0  0  0  0  0  0  0  0  0
  -10.5100    4.1960  -17.3560 H   0  0  0  0  0  0  0  0  0  0  0  0
   -9.4522    7.2965  -15.6849 H   0  0  0  0  0  0  0  0  0  0  0  0
   -8.8562    9.3533  -16.9571 H   0  0  0  0  0  0  0  0  0  0  0  0
  -10.7616    5.4272  -19.3443 H   0  0  0  0  0  0  0  0  0  0  0  0
  -10.0146    1.7982  -13.6193 H   0  0  0  0  0  0  0  0  0  0  0  0
  -11.0014    0.7126  -11.6026 H   0  0  0  0  0  0  0  0  0  0  0  0
  -11.7290    1.6293   -8.9035 H   0  0  0  0  0  0  0  0  0  0  0  0
  -10.4844   -0.0854   -7.6408 H   0  0  0  0  0  0  0  0  0  0  0  0
  1  2  1  0
  2  3  1  0
  3  4  2  0
  3  5  1  0
  5  6  2  0
  6  7  1  0
  7  8  1  0
  8  9  1  0
  9 10  1  0
 10 11  2  0
 11 12  1  0
 12 13  1  0
 13 14  1  0
 14 15  2  0
 14 16  1  0
 16 17  1  0
 17 18  1  0
 18 19  2  0
 19 20  1  0
 20 21  1  0
 20 22  2  0
 22 23  1  0
 23 24  1  0
 23 25  1  0
 23 26  1  0
 22 27  1  0
 12 28  2  0
 28 29  1  0
  7 30  2  0
 30 31  1  0
 31 32  2  0
 32  5  1  0
 29  9  2  0
 27 17  2  0
  1 33  1  0
  1 34  1  0
  1 35  1  0
  2 36  1  0
  6 37  1  0
 10 38  1  0
 11 39  1  0
 13 40  1  0
 16 41  1  0
 18 42  1  0
 19 43  1  0
 27 44  1  0
 28 45  1  0
 29 46  1  0
 30 47  1  0
 31 48  1  0
M  END
>  <meeko>  (4) 
{"is_sidechain": false}

>  <vina_affinity_kcal_mol>  (4) 
-8.484

>  <pose_rank>  (4) 
4

$$$$

     RDKit          3D

 48 50  0  0  0  0  0  0  0  0999 V2000
  -12.6610   -7.3950   -9.6010 C   0  0  0  0  0  0  0  0  0  0  0  0
  -12.9020   -6.0940   -9.0400 N   0  0  0  0  0  0  0  0  0  0  0  0
  -13.7470   -5.8940   -7.9690 C   0  0  0  0  0  0  0  0  0  0  0  0
  -14.2930   -6.7950   -7.3450 O   0  0  0  0  0  0  0  0  0  0  0  0
  -13.9690   -4.4520   -7.6240 C   0  0  0  0  0  0  0  0  0  0  0  0
  -14.4140   -3.5720   -8.5980 C   0  0  0  0  0  0  0  0  0  0  0  0
  -14.5820   -2.2410   -8.2290 C   0  0  0  0  0  0  0  0  0  0  0  0
  -15.0470   -1.2680   -9.0870 O   0  0  0  0  0  0  0  0  0  0  0  0
  -14.1150   -0.5250   -9.7730 C   0  0  0  0  0  0  0  0  0  0  0  0
  -14.5200    0.7130  -10.2620 C   0  0  0  0  0  0  0  0  0  0  0  0
  -13.6100    1.5300  -10.9440 C   0  0  0  0  0  0  0  0  0  0  0  0
  -12.2870    1.1200  -11.1220 C   0  0  0  0  0  0  0  0  0  0  0  0
  -11.3170    1.8740  -11.8140 N   0  0  0  0  0  0  0  0  0  0  0  0
  -11.2200    2.0670  -13.1850 C   0  0  0  0  0  0  0  0  0  0  0  0
  -12.0450    1.6960  -14.0080 O   0  0  0  0  0  0  0  0  0  0  0  0
  -10.0460    2.7450  -13.4890 N   0  0  0  0  0  0  0  0  0  0  0  0
   -9.6400    3.2300  -14.7480 C   0  0  0  0  0  0  0  0  0  0  0  0
   -8.5850    2.6940  -15.4850 C   0  0  0  0  0  0  0  0  0  0  0  0
   -8.2520    3.2270  -16.7350 C   0  0  0  0  0  0  0  0  0  0  0  0
   -8.9740    4.2990  -17.2640 C   0  0  0  0  0  0  0  0  0  0  0  0
   -8.4990    4.8960  -18.8110 Cl  0  0  0  0  0  0  0  0  0  0  0  0
  -10.0410    4.8500  -16.5490 C   0  0  0  0  0  0  0  0  0  0  0  0
  -10.8420    6.0020  -17.0920 C   0  0  0  0  0  0  0  0  0  0  0  0
  -11.9110    6.3200  -16.3040 F   0  0  0  0  0  0  0  0  0  0  0  0
  -11.3670    5.7550  -18.3230 F   0  0  0  0  0  0  0  0  0  0  0  0
  -10.1220    7.1510  -17.2000 F   0  0  0  0  0  0  0  0  0  0  0  0
  -10.3640    4.3000  -15.2900 C   0  0  0  0  0  0  0  0  0  0  0  0
  -11.8860   -0.1230  -10.6090 C   0  0  0  0  0  0  0  0  0  0  0  0
  -12.7920   -0.9380   -9.9250 C   0  0  0  0  0  0  0  0  0  0  0  0
  -14.3460   -1.8460   -6.9170 C   0  0  0  0  0  0  0  0  0  0  0  0
  -13.9070   -2.7990   -6.0140 C   0  0  0  0  0  0  0  0  0  0  0  0
  -13.7030   -4.0950   -6.3320 N   0  0  0  0  0  0  0  0  0  0  0  0
  -12.5258   -8.1250   -8.7893 H   0  0  0  0  0  0  0  0  0  0  0  0
  -13.5195   -7.6915  -10.2215 H   0  0  0  0  0  0  0  0  0  0  0  0
  -11.7533   -7.3643  -10.2215 H   0  0  0  0  0  0  0  0  0  0  0  0
  -12.6000   -5.2560   -9.5320 H   0  0  0  0  0  0  0  0  0  0  0  0
  -14.6260   -3.9124   -9.6223 H   0  0  0  0  0  0  0  0  0  0  0  0
  -15.5563    1.0504  -10.1127 H   0  0  0  0  0  0  0  0  0  0  0  0
  -13.9394    2.5011  -11.3421 H   0  0  0  0  0  0  0  0  0  0  0  0
  -10.7260    2.4610  -11.2440 H   0  0  0  0  0  0  0  0  0  0  0  0
   -9.3450    2.7420  -12.7630 H   0  0  0  0  0  0  0  0  0  0  0  0
   -8.0109    1.8469  -15.0813 H   0  0  0  0  0  0  0  0  0  0  0  0
   -7.4149    2.7983  -17.3056 H   0  0  0  0  0  0  0  0  0  0  0  0
  -11.2050    4.7219  -14.7202 H   0  0  0  0  0  0  0  0  0  0  0  0
  -10.8478   -0.4594  -10.7467 H   0  0  0  0  0  0  0  0  0  0  0  0
  -12.4628   -1.9013   -9.5083 H   0  0  0  0  0  0  0  0  0  0  0  0
  -14.5040   -0.8032   -6.6046 H   0  0  0  0  0  0  0  0  0  0  0  0
  -13.7134   -2.4822   -4.9785 H   0  0  0  0  0  0  0  0  0  0  0  0
  1  2  1  0
  2  3  1  0
  3  4  2  0
  3  5  1  0
  5  6  2  0
  6  7  1  0
  7  8  1  0
  8  9  1  0
  9 10  1  0
 10 11  2  0
 11 12  1  0
 12 13  1  0
 13 14  1  0
 14 15  2  0
 14 16  1  0
 16 17  1  0
 17 18  1  0
 18 19  2  0
 19 20  1  0
 20 21  1  0
 20 22  2  0
 22 23  1  0
 23 24  1  0
 23 25  1  0
 23 26  1  0
 22 27  1  0
 12 28  2  0
 28 29  1  0
  7 30  2  0
 30 31  1  0
 31 32  2  0
 32  5  1  0
 29  9  2  0
 27 17  2  0
  1 33  1  0
  1 34  1  0
  1 35  1  0
  2 36  1  0
  6 37  1  0
 10 38  1  0
 11 39  1  0
 13 40  1  0
 16 41  1  0
 18 42  1  0
 19 43  1  0
 27 44  1  0
 28 45  1  0
 29 46  1  0
 30 47  1  0
 31 48  1  0
M  END
>  <meeko>  (5) 
{"is_sidechain": false}

>  <vina_affinity_kcal_mol>  (5) 
-8.304

>  <pose_rank>  (5) 
5

$$$$

     RDKit          3D

 48 50  0  0  0  0  0  0  0  0999 V2000
  -19.5570    0.5980   -6.5970 C   0  0  0  0  0  0  0  0  0  0  0  0
  -18.5620   -0.2070   -7.2520 N   0  0  0  0  0  0  0  0  0  0  0  0
  -17.3150   -0.4320   -6.7070 C   0  0  0  0  0  0  0  0  0  0  0  0
  -16.9710   -0.0530   -5.5940 O   0  0  0  0  0  0  0  0  0  0  0  0
  -16.3790   -1.1810   -7.6070 C   0  0  0  0  0  0  0  0  0  0  0  0
  -15.1270   -0.6550   -7.8880 C   0  0  0  0  0  0  0  0  0  0  0  0
  -14.3060   -1.3800   -8.7460 C   0  0  0  0  0  0  0  0  0  0  0  0
  -13.0290   -0.9900   -9.0850 O   0  0  0  0  0  0  0  0  0  0  0  0
  -12.8940    0.0160  -10.0130 C   0  0  0  0  0  0  0  0  0  0  0  0
  -11.6560    0.1500  -10.6350 C   0  0  0  0  0  0  0  0  0  0  0  0
  -11.4650    1.1360  -11.6100 C   0  0  0  0  0  0  0  0  0  0  0  0
  -12.5150    1.9780  -11.9820 C   0  0  0  0  0  0  0  0  0  0  0  0
  -12.3960    3.0070  -12.9390 N   0  0  0  0  0  0  0  0  0  0  0  0
  -11.4760    3.0940  -13.9730 C   0  0  0  0  0  0  0  0  0  0  0  0
  -10.6830    2.2150  -14.2850 O   0  0  0  0  0  0  0  0  0  0  0  0
  -11.5840    4.3260  -14.6050 N   0  0  0  0  0  0  0  0  0  0  0  0
  -10.9100    4.7530  -15.7670 C   0  0  0  0  0  0  0  0  0  0  0  0
  -11.4410    5.6530  -16.6880 C   0  0  0  0  0  0  0  0  0  0  0  0
  -10.7010    6.0360  -17.8120 C   0  0  0  0  0  0  0  0  0  0  0  0
   -9.4190    5.5260  -18.0240 C   0  0  0  0  0  0  0  0  0  0  0  0
   -8.5740    6.0490  -19.4340 Cl  0  0  0  0  0  0  0  0  0  0  0  0
   -8.8590    4.6270  -17.1120 C   0  0  0  0  0  0  0  0  0  0  0  0
   -7.4790    4.0620  -17.3090 C   0  0  0  0  0  0  0  0  0  0  0  0
   -7.0350    3.3630  -16.2240 F   0  0  0  0  0  0  0  0  0  0  0  0
   -6.5360    5.0190  -17.5270 F   0  0  0  0  0  0  0  0  0  0  0  0
   -7.3990    3.1930  -18.3530 F   0  0  0  0  0  0  0  0  0  0  0  0
   -9.6190    4.2520  -15.9840 C   0  0  0  0  0  0  0  0  0  0  0  0
  -13.7630    1.8210  -11.3600 C   0  0  0  0  0  0  0  0  0  0  0  0
  -13.9580    0.8350  -10.3890 C   0  0  0  0  0  0  0  0  0  0  0  0
  -14.7350   -2.6020   -9.2540 C   0  0  0  0  0  0  0  0  0  0  0  0
  -16.0000   -3.0450   -8.9130 C   0  0  0  0  0  0  0  0  0  0  0  0
  -16.8420   -2.3640   -8.1070 N   0  0  0  0  0  0  0  0  0  0  0  0
  -19.4434    0.5061   -5.5067 H   0  0  0  0  0  0  0  0  0  0  0  0
  -19.4295    1.6501   -6.8916 H   0  0  0  0  0  0  0  0  0  0  0  0
  -20.5593    0.2536   -6.8916 H   0  0  0  0  0  0  0  0  0  0  0  0
  -18.6800   -0.4840   -8.2230 H   0  0  0  0  0  0  0  0  0  0  0  0
  -14.7960    0.2981   -7.4497 H   0  0  0  0  0  0  0  0  0  0  0  0
  -10.8274   -0.5192  -10.3602 H   0  0  0  0  0  0  0  0  0  0  0  0
  -10.4801    1.2484  -12.0869 H   0  0  0  0  0  0  0  0  0  0  0  0
  -13.1570    3.6690  -12.9700 H   0  0  0  0  0  0  0  0  0  0  0  0
  -12.0710    5.0380  -14.0830 H   0  0  0  0  0  0  0  0  0  0  0  0
  -12.4486    6.0653  -16.5306 H   0  0  0  0  0  0  0  0  0  0  0  0
  -11.1328    6.7445  -18.5342 H   0  0  0  0  0  0  0  0  0  0  0  0
   -9.1875    3.5487  -15.2565 H   0  0  0  0  0  0  0  0  0  0  0  0
  -14.5971    2.4813  -11.6398 H   0  0  0  0  0  0  0  0  0  0  0  0
  -14.9462    0.7056   -9.9235 H   0  0  0  0  0  0  0  0  0  0  0  0
  -14.0852   -3.2002   -9.9097 H   0  0  0  0  0  0  0  0  0  0  0  0
  -16.3397   -4.0079   -9.3222 H   0  0  0  0  0  0  0  0  0  0  0  0
  1  2  1  0
  2  3  1  0
  3  4  2  0
  3  5  1  0
  5  6  2  0
  6  7  1  0
  7  8  1  0
  8  9  1  0
  9 10  1  0
 10 11  2  0
 11 12  1  0
 12 13  1  0
 13 14  1  0
 14 15  2  0
 14 16  1  0
 16 17  1  0
 17 18  1  0
 18 19  2  0
 19 20  1  0
 20 21  1  0
 20 22  2  0
 22 23  1  0
 23 24  1  0
 23 25  1  0
 23 26  1  0
 22 27  1  0
 12 28  2  0
 28 29  1  0
  7 30  2  0
 30 31  1  0
 31 32  2  0
 32  5  1  0
 29  9  2  0
 27 17  2  0
  1 33  1  0
  1 34  1  0
  1 35  1  0
  2 36  1  0
  6 37  1  0
 10 38  1  0
 11 39  1  0
 13 40  1  0
 16 41  1  0
 18 42  1  0
 19 43  1  0
 27 44  1  0
 28 45  1  0
 29 46  1  0
 30 47  1  0
 31 48  1  0
M  END
>  <meeko>  (6) 
{"is_sidechain": false}

>  <vina_affinity_kcal_mol>  (6) 
-8.3

>  <pose_rank>  (6) 
6

$$$$

     RDKit          3D

 48 50  0  0  0  0  0  0  0  0999 V2000
   -7.8920    0.1440   -6.0590 C   0  0  0  0  0  0  0  0  0  0  0  0
   -8.7240   -0.0120   -7.2210 N   0  0  0  0  0  0  0  0  0  0  0  0
  -10.0440   -0.4020   -7.1400 C   0  0  0  0  0  0  0  0  0  0  0  0
  -10.6520   -0.5620   -6.0880 O   0  0  0  0  0  0  0  0  0  0  0  0
  -10.6970   -0.6380   -8.4680 C   0  0  0  0  0  0  0  0  0  0  0  0
  -11.4770    0.3570   -9.0380 C   0  0  0  0  0  0  0  0  0  0  0  0
  -12.0780    0.0780  -10.2620 C   0  0  0  0  0  0  0  0  0  0  0  0
  -12.8510    0.9850  -10.9530 O   0  0  0  0  0  0  0  0  0  0  0  0
  -12.3010    1.5710  -12.0690 C   0  0  0  0  0  0  0  0  0  0  0  0
  -13.1020    2.4520  -12.7890 C   0  0  0  0  0  0  0  0  0  0  0  0
  -12.5910    3.1040  -13.9170 C   0  0  0  0  0  0  0  0  0  0  0  0
  -11.2700    2.8920  -14.3190 C   0  0  0  0  0  0  0  0  0  0  0  0
  -10.6880    3.4940  -15.4540 N   0  0  0  0  0  0  0  0  0  0  0  0
  -10.7470    4.8300  -15.8230 C   0  0  0  0  0  0  0  0  0  0  0  0
  -11.2290    5.7270  -15.1440 O   0  0  0  0  0  0  0  0  0  0  0  0
  -10.1780    5.0030  -17.0780 N   0  0  0  0  0  0  0  0  0  0  0  0
   -9.9420    6.2190  -17.7500 C   0  0  0  0  0  0  0  0  0  0  0  0
   -9.4340    7.3620  -17.1350 C   0  0  0  0  0  0  0  0  0  0  0  0
   -9.2170    8.5280  -17.8770 C   0  0  0  0  0  0  0  0  0  0  0  0
   -9.5000    8.5620  -19.2430 C   0  0  0  0  0  0  0  0  0  0  0  0
   -9.2030   10.0390  -20.0840 Cl  0  0  0  0  0  0  0  0  0  0  0  0
  -10.0020    7.4280  -19.8870 C   0  0  0  0  0  0  0  0  0  0  0  0
  -10.3130    7.4300  -21.3580 C   0  0  0  0  0  0  0  0  0  0  0  0
  -10.8680    6.2560  -21.7830 F   0  0  0  0  0  0  0  0  0  0  0  0
   -9.2120    7.6060  -22.1370 F   0  0  0  0  0  0  0  0  0  0  0  0
  -11.2020    8.3960  -21.7170 F   0  0  0  0  0  0  0  0  0  0  0  0
  -10.2160    6.2600  -19.1240 C   0  0  0  0  0  0  0  0  0  0  0  0
  -10.4660    2.0160  -13.5740 C   0  0  0  0  0  0  0  0  0  0  0  0
  -10.9740    1.3670  -12.4450 C   0  0  0  0  0  0  0  0  0  0  0  0
  -11.8540   -1.1460  -10.8850 C   0  0  0  0  0  0  0  0  0  0  0  0
  -11.0580   -2.0750  -10.2380 C   0  0  0  0  0  0  0  0  0  0  0  0
  -10.4770   -1.8590   -9.0390 N   0  0  0  0  0  0  0  0  0  0  0  0
   -8.5037    0.0293   -5.1520 H   0  0  0  0  0  0  0  0  0  0  0  0
   -7.1023   -0.6217   -6.0680 H   0  0  0  0  0  0  0  0  0  0  0  0
   -7.4334    1.1438   -6.0680 H   0  0  0  0  0  0  0  0  0  0  0  0
   -8.3150   -0.0180   -8.1530 H   0  0  0  0  0  0  0  0  0  0  0  0
  -11.6153    1.3290   -8.5420 H   0  0  0  0  0  0  0  0  0  0  0  0
  -14.1388    2.6363  -12.4710 H   0  0  0  0  0  0  0  0  0  0  0  0
  -13.2337    3.7879  -14.4908 H   0  0  0  0  0  0  0  0  0  0  0  0
  -10.0310    2.9240  -15.9660 H   0  0  0  0  0  0  0  0  0  0  0  0
  -10.0770    4.1620  -17.6260 H   0  0  0  0  0  0  0  0  0  0  0  0
   -9.2023    7.3472  -16.0598 H   0  0  0  0  0  0  0  0  0  0  0  0
   -8.8201    9.4252  -17.3796 H   0  0  0  0  0  0  0  0  0  0  0  0
  -10.6075    5.3596  -19.6200 H   0  0  0  0  0  0  0  0  0  0  0  0
   -9.4250    1.8381  -13.8816 H   0  0  0  0  0  0  0  0  0  0  0  0
  -10.3295    0.6981  -11.8557 H   0  0  0  0  0  0  0  0  0  0  0  0
  -12.2981   -1.3693  -11.8663 H   0  0  0  0  0  0  0  0  0  0  0  0
  -10.8892   -3.0448  -10.7289 H   0  0  0  0  0  0  0  0  0  0  0  0
  1  2  1  0
  2  3  1  0
  3  4  2  0
  3  5  1  0
  5  6  2  0
  6  7  1  0
  7  8  1  0
  8  9  1  0
  9 10  1  0
 10 11  2  0
 11 12  1  0
 12 13  1  0
 13 14  1  0
 14 15  2  0
 14 16  1  0
 16 17  1  0
 17 18  1  0
 18 19  2  0
 19 20  1  0
 20 21  1  0
 20 22  2  0
 22 23  1  0
 23 24  1  0
 23 25  1  0
 23 26  1  0
 22 27  1  0
 12 28  2  0
 28 29  1  0
  7 30  2  0
 30 31  1  0
 31 32  2  0
 32  5  1  0
 29  9  2  0
 27 17  2  0
  1 33  1  0
  1 34  1  0
  1 35  1  0
  2 36  1  0
  6 37  1  0
 10 38  1  0
 11 39  1  0
 13 40  1  0
 16 41  1  0
 18 42  1  0
 19 43  1  0
 27 44  1  0
 28 45  1  0
 29 46  1  0
 30 47  1  0
 31 48  1  0
M  END
>  <meeko>  (7) 
{"is_sidechain": false}

>  <vina_affinity_kcal_mol>  (7) 
-8.285

>  <pose_rank>  (7) 
7

$$$$

     RDKit          3D

 48 50  0  0  0  0  0  0  0  0999 V2000
   -2.1910    0.7910  -18.1930 C   0  0  0  0  0  0  0  0  0  0  0  0
   -3.0880    0.0430  -17.3540 N   0  0  0  0  0  0  0  0  0  0  0  0
   -2.6840   -0.5380  -16.1710 C   0  0  0  0  0  0  0  0  0  0  0  0
   -1.5700   -0.4020  -15.6820 O   0  0  0  0  0  0  0  0  0  0  0  0
   -3.7310   -1.3870  -15.5150 C   0  0  0  0  0  0  0  0  0  0  0  0
   -4.8630   -0.7910  -14.9790 C   0  0  0  0  0  0  0  0  0  0  0  0
   -5.7930   -1.6220  -14.3630 C   0  0  0  0  0  0  0  0  0  0  0  0
   -6.9740   -1.1680  -13.8180 O   0  0  0  0  0  0  0  0  0  0  0  0
   -7.6010   -0.1150  -14.4420 C   0  0  0  0  0  0  0  0  0  0  0  0
   -8.1330   -0.3480  -15.7070 C   0  0  0  0  0  0  0  0  0  0  0  0
   -8.8090    0.6750  -16.3830 C   0  0  0  0  0  0  0  0  0  0  0  0
   -8.9740    1.9280  -15.7880 C   0  0  0  0  0  0  0  0  0  0  0  0
   -9.6240    3.0130  -16.4100 N   0  0  0  0  0  0  0  0  0  0  0  0
   -9.0450    4.1800  -16.8880 C   0  0  0  0  0  0  0  0  0  0  0  0
   -7.8420    4.3970  -16.9430 O   0  0  0  0  0  0  0  0  0  0  0  0
  -10.0310    5.0700  -17.2950 N   0  0  0  0  0  0  0  0  0  0  0  0
   -9.8510    6.3090  -17.9420 C   0  0  0  0  0  0  0  0  0  0  0  0
   -9.3910    7.4600  -17.3050 C   0  0  0  0  0  0  0  0  0  0  0  0
   -9.2280    8.6500  -18.0220 C   0  0  0  0  0  0  0  0  0  0  0  0
   -9.5190    8.7000  -19.3870 C   0  0  0  0  0  0  0  0  0  0  0  0
   -9.2910   10.2060  -20.1970 Cl  0  0  0  0  0  0  0  0  0  0  0  0
   -9.9740    7.5580  -20.0520 C   0  0  0  0  0  0  0  0  0  0  0  0
  -10.2930    7.5780  -21.5220 C   0  0  0  0  0  0  0  0  0  0  0  0
  -10.7200    6.3670  -21.9860 F   0  0  0  0  0  0  0  0  0  0  0  0
   -9.2210    7.8990  -22.2970 F   0  0  0  0  0  0  0  0  0  0  0  0
  -11.2820    8.4540  -21.8450 F   0  0  0  0  0  0  0  0  0  0  0  0
  -10.1330    6.3660  -19.3130 C   0  0  0  0  0  0  0  0  0  0  0  0
   -8.4500    2.1440  -14.5050 C   0  0  0  0  0  0  0  0  0  0  0  0
   -7.7770    1.1240  -13.8270 C   0  0  0  0  0  0  0  0  0  0  0  0
   -5.5890   -2.9980  -14.3370 C   0  0  0  0  0  0  0  0  0  0  0  0
   -4.4290   -3.4990  -14.9010 C   0  0  0  0  0  0  0  0  0  0  0  0
   -3.4860   -2.7300  -15.4850 N   0  0  0  0  0  0  0  0  0  0  0  0
   -1.4976    1.3692  -17.5646 H   0  0  0  0  0  0  0  0  0  0  0  0
   -1.6194    0.0982  -18.8281 H   0  0  0  0  0  0  0  0  0  0  0  0
   -2.7698    1.4778  -18.8281 H   0  0  0  0  0  0  0  0  0  0  0  0
   -4.0030   -0.2370  -17.6980 H   0  0  0  0  0  0  0  0  0  0  0  0
   -5.0192    0.2962  -15.0387 H   0  0  0  0  0  0  0  0  0  0  0  0
   -8.0222   -1.3368  -16.1761 H   0  0  0  0  0  0  0  0  0  0  0  0
   -9.2129    0.4907  -17.3894 H   0  0  0  0  0  0  0  0  0  0  0  0
  -10.5850    2.8580  -16.6770 H   0  0  0  0  0  0  0  0  0  0  0  0
  -10.9570    4.8790  -16.9440 H   0  0  0  0  0  0  0  0  0  0  0  0
   -9.1545    7.4325  -16.2311 H   0  0  0  0  0  0  0  0  0  0  0  0
   -8.8680    9.5529  -17.5070 H   0  0  0  0  0  0  0  0  0  0  0  0
  -10.4870    5.4597  -19.8261 H   0  0  0  0  0  0  0  0  0  0  0  0
   -8.5701    3.1274  -14.0270 H   0  0  0  0  0  0  0  0  0  0  0  0
   -7.3879    1.2977  -12.8129 H   0  0  0  0  0  0  0  0  0  0  0  0
   -6.3304   -3.6700  -13.8801 H   0  0  0  0  0  0  0  0  0  0  0  0
   -4.2660   -4.5865  -14.8717 H   0  0  0  0  0  0  0  0  0  0  0  0
  1  2  1  0
  2  3  1  0
  3  4  2  0
  3  5  1  0
  5  6  2  0
  6  7  1  0
  7  8  1  0
  8  9  1  0
  9 10  1  0
 10 11  2  0
 11 12  1  0
 12 13  1  0
 13 14  1  0
 14 15  2  0
 14 16  1  0
 16 17  1  0
 17 18  1  0
 18 19  2  0
 19 20  1  0
 20 21  1  0
 20 22  2  0
 22 23  1  0
 23 24  1  0
 23 25  1  0
 23 26  1  0
 22 27  1  0
 12 28  2  0
 28 29  1  0
  7 30  2  0
 30 31  1  0
 31 32  2  0
 32  5  1  0
 29  9  2  0
 27 17  2  0
  1 33  1  0
  1 34  1  0
  1 35  1  0
  2 36  1  0
  6 37  1  0
 10 38  1  0
 11 39  1  0
 13 40  1  0
 16 41  1  0
 18 42  1  0
 19 43  1  0
 27 44  1  0
 28 45  1  0
 29 46  1  0
 30 47  1  0
 31 48  1  0
M  END
>  <meeko>  (8) 
{"is_sidechain": false}

>  <vina_affinity_kcal_mol>  (8) 
-8.285

>  <pose_rank>  (8) 
8

$$$$

     RDKit          3D

 48 50  0  0  0  0  0  0  0  0999 V2000
  -10.6130   -0.8970   -4.0770 C   0  0  0  0  0  0  0  0  0  0  0  0
  -11.7490   -0.9990   -4.9530 N   0  0  0  0  0  0  0  0  0  0  0  0
  -13.0390   -0.7690   -4.5240 C   0  0  0  0  0  0  0  0  0  0  0  0
  -13.3310   -0.3740   -3.4020 O   0  0  0  0  0  0  0  0  0  0  0  0
  -14.0890   -1.0600   -5.5530 C   0  0  0  0  0  0  0  0  0  0  0  0
  -13.7260   -1.2140   -6.8820 C   0  0  0  0  0  0  0  0  0  0  0  0
  -14.7420   -1.4610   -7.7990 C   0  0  0  0  0  0  0  0  0  0  0  0
  -14.5200   -1.6650   -9.1430 O   0  0  0  0  0  0  0  0  0  0  0  0
  -13.7100   -0.7680   -9.7990 C   0  0  0  0  0  0  0  0  0  0  0  0
  -12.4230   -1.1870  -10.1240 C   0  0  0  0  0  0  0  0  0  0  0  0
  -11.5610   -0.3310  -10.8180 C   0  0  0  0  0  0  0  0  0  0  0  0
  -11.9880    0.9400  -11.2080 C   0  0  0  0  0  0  0  0  0  0  0  0
  -11.1740    1.8680  -11.8900 N   0  0  0  0  0  0  0  0  0  0  0  0
  -10.9720    1.9640  -13.2590 C   0  0  0  0  0  0  0  0  0  0  0  0
  -11.5710    1.3160  -14.1060 O   0  0  0  0  0  0  0  0  0  0  0  0
   -9.9880    2.9060  -13.5310 N   0  0  0  0  0  0  0  0  0  0  0  0
   -9.5780    3.3760  -14.7950 C   0  0  0  0  0  0  0  0  0  0  0  0
   -8.4530    2.9080  -15.4720 C   0  0  0  0  0  0  0  0  0  0  0  0
   -8.1220    3.4190  -16.7310 C   0  0  0  0  0  0  0  0  0  0  0  0
   -8.9140    4.4010  -17.3290 C   0  0  0  0  0  0  0  0  0  0  0  0
   -8.4350    4.9770  -18.8830 Cl  0  0  0  0  0  0  0  0  0  0  0  0
  -10.0520    4.8820  -16.6760 C   0  0  0  0  0  0  0  0  0  0  0  0
  -10.9290    5.9350  -17.2940 C   0  0  0  0  0  0  0  0  0  0  0  0
  -12.0420    6.2000  -16.5490 F   0  0  0  0  0  0  0  0  0  0  0  0
  -11.3980    5.5860  -18.5230 F   0  0  0  0  0  0  0  0  0  0  0  0
  -10.3040    7.1350  -17.4430 F   0  0  0  0  0  0  0  0  0  0  0  0
  -10.3720    4.3550  -15.4060 C   0  0  0  0  0  0  0  0  0  0  0  0
  -13.2930    1.3450  -10.8910 C   0  0  0  0  0  0  0  0  0  0  0  0
  -14.1570    0.4900  -10.2010 C   0  0  0  0  0  0  0  0  0  0  0  0
  -16.0580   -1.5830   -7.3640 C   0  0  0  0  0  0  0  0  0  0  0  0
  -16.3220   -1.4150   -6.0170 C   0  0  0  0  0  0  0  0  0  0  0  0
  -15.3730   -1.1480   -5.0950 N   0  0  0  0  0  0  0  0  0  0  0  0
  -10.9525   -0.9275   -3.0312 H   0  0  0  0  0  0  0  0  0  0  0  0
   -9.9285   -1.7373   -4.2649 H   0  0  0  0  0  0  0  0  0  0  0  0
  -10.0891    0.0518   -4.2649 H   0  0  0  0  0  0  0  0  0  0  0  0
  -11.6550   -1.4240   -5.8720 H   0  0  0  0  0  0  0  0  0  0  0  0
  -12.6750   -1.1436   -7.1990 H   0  0  0  0  0  0  0  0  0  0  0  0
  -12.0832   -2.1924   -9.8348 H   0  0  0  0  0  0  0  0  0  0  0  0
  -10.5397   -0.6616  -11.0581 H   0  0  0  0  0  0  0  0  0  0  0  0
  -10.8260    2.6390  -11.3390 H   0  0  0  0  0  0  0  0  0  0  0  0
   -9.3990    3.1540  -12.7490 H   0  0  0  0  0  0  0  0  0  0  0  0
   -7.8220    2.1324  -15.0134 H   0  0  0  0  0  0  0  0  0  0  0  0
   -7.2302    3.0441  -17.2545 H   0  0  0  0  0  0  0  0  0  0  0  0
  -11.2673    4.7224  -14.8831 H   0  0  0  0  0  0  0  0  0  0  0  0
  -13.6399    2.3456  -11.1884 H   0  0  0  0  0  0  0  0  0  0  0  0
  -15.1856    0.8084   -9.9760 H   0  0  0  0  0  0  0  0  0  0  0  0
  -16.8680   -1.8074   -8.0737 H   0  0  0  0  0  0  0  0  0  0  0  0
  -17.3646   -1.5040   -5.6776 H   0  0  0  0  0  0  0  0  0  0  0  0
  1  2  1  0
  2  3  1  0
  3  4  2  0
  3  5  1  0
  5  6  2  0
  6  7  1  0
  7  8  1  0
  8  9  1  0
  9 10  1  0
 10 11  2  0
 11 12  1  0
 12 13  1  0
 13 14  1  0
 14 15  2  0
 14 16  1  0
 16 17  1  0
 17 18  1  0
 18 19  2  0
 19 20  1  0
 20 21  1  0
 20 22  2  0
 22 23  1  0
 23 24  1  0
 23 25  1  0
 23 26  1  0
 22 27  1  0
 12 28  2  0
 28 29  1  0
  7 30  2  0
 30 31  1  0
 31 32  2  0
 32  5  1  0
 29  9  2  0
 27 17  2  0
  1 33  1  0
  1 34  1  0
  1 35  1  0
  2 36  1  0
  6 37  1  0
 10 38  1  0
 11 39  1  0
 13 40  1  0
 16 41  1  0
 18 42  1  0
 19 43  1  0
 27 44  1  0
 28 45  1  0
 29 46  1  0
 30 47  1  0
 31 48  1  0
M  END
>  <meeko>  (9) 
{"is_sidechain": false}

>  <vina_affinity_kcal_mol>  (9) 
-8.232

>  <pose_rank>  (9) 
9

$$$$

     RDKit          3D

 48 50  0  0  0  0  0  0  0  0999 V2000
  -12.9500    0.2620  -10.0500 C   0  0  0  0  0  0  0  0  0  0  0  0
  -11.6110   -0.1150  -10.4150 N   0  0  0  0  0  0  0  0  0  0  0  0
  -11.2100   -1.4310  -10.5000 C   0  0  0  0  0  0  0  0  0  0  0  0
  -11.9590   -2.3900  -10.3660 O   0  0  0  0  0  0  0  0  0  0  0  0
   -9.7440   -1.6100  -10.7610 C   0  0  0  0  0  0  0  0  0  0  0  0
   -9.2080   -1.2130  -11.9760 C   0  0  0  0  0  0  0  0  0  0  0  0
   -7.8470   -1.4210  -12.1740 C   0  0  0  0  0  0  0  0  0  0  0  0
   -7.1790   -1.0460  -13.3190 O   0  0  0  0  0  0  0  0  0  0  0  0
   -7.7510   -0.0670  -14.0980 C   0  0  0  0  0  0  0  0  0  0  0  0
   -7.9750   -0.3670  -15.4390 C   0  0  0  0  0  0  0  0  0  0  0  0
   -8.5810    0.5760  -16.2770 C   0  0  0  0  0  0  0  0  0  0  0  0
   -8.9820    1.8160  -15.7740 C   0  0  0  0  0  0  0  0  0  0  0  0
   -9.5780    2.8250  -16.5570 N   0  0  0  0  0  0  0  0  0  0  0  0
   -9.0510    4.0700  -16.8720 C   0  0  0  0  0  0  0  0  0  0  0  0
   -7.9160    4.4410  -16.6040 O   0  0  0  0  0  0  0  0  0  0  0  0
  -10.0000    4.8350  -17.5370 N   0  0  0  0  0  0  0  0  0  0  0  0
   -9.8180    6.1040  -18.1210 C   0  0  0  0  0  0  0  0  0  0  0  0
   -9.3380    7.2170  -17.4330 C   0  0  0  0  0  0  0  0  0  0  0  0
   -9.1750    8.4410  -18.0920 C   0  0  0  0  0  0  0  0  0  0  0  0
   -9.4860    8.5640  -19.4470 C   0  0  0  0  0  0  0  0  0  0  0  0
   -9.2560   10.1070  -20.1830 Cl  0  0  0  0  0  0  0  0  0  0  0  0
   -9.9620    7.4620  -20.1630 C   0  0  0  0  0  0  0  0  0  0  0  0
  -10.3030    7.5600  -21.6250 C   0  0  0  0  0  0  0  0  0  0  0  0
  -11.2850    8.4740  -21.8780 F   0  0  0  0  0  0  0  0  0  0  0  0
  -10.7620    6.3890  -22.1460 F   0  0  0  0  0  0  0  0  0  0  0  0
   -9.2500    7.9420  -22.3960 F   0  0  0  0  0  0  0  0  0  0  0  0
  -10.1210    6.2350  -19.4840 C   0  0  0  0  0  0  0  0  0  0  0  0
   -8.7660    2.1000  -14.4180 C   0  0  0  0  0  0  0  0  0  0  0  0
   -8.1660    1.1580  -13.5780 C   0  0  0  0  0  0  0  0  0  0  0  0
   -7.0720   -1.9720  -11.1590 C   0  0  0  0  0  0  0  0  0  0  0  0
   -7.6970   -2.3350   -9.9790 C   0  0  0  0  0  0  0  0  0  0  0  0
   -9.0180   -2.1770   -9.7520 N   0  0  0  0  0  0  0  0  0  0  0  0
  -13.0380    0.2868   -8.9538 H   0  0  0  0  0  0  0  0  0  0  0  0
  -13.1747    1.2583  -10.4585 H   0  0  0  0  0  0  0  0  0  0  0  0
  -13.6615   -0.4707  -10.4585 H   0  0  0  0  0  0  0  0  0  0  0  0
  -10.8690    0.5800  -10.4430 H   0  0  0  0  0  0  0  0  0  0  0  0
   -9.8345   -0.7514  -12.7534 H   0  0  0  0  0  0  0  0  0  0  0  0
   -7.6753   -1.3464  -15.8403 H   0  0  0  0  0  0  0  0  0  0  0  0
   -8.7426    0.3391  -17.3390 H   0  0  0  0  0  0  0  0  0  0  0  0
  -10.4040    2.5550  -17.0710 H   0  0  0  0  0  0  0  0  0  0  0  0
  -10.9530    4.5170  -17.4450 H   0  0  0  0  0  0  0  0  0  0  0  0
   -9.0857    7.1330  -16.3656 H   0  0  0  0  0  0  0  0  0  0  0  0
   -8.7987    9.3132  -17.5374 H   0  0  0  0  0  0  0  0  0  0  0  0
  -10.4918    5.3597  -20.0376 H   0  0  0  0  0  0  0  0  0  0  0  0
   -9.0722    3.0750  -14.0109 H   0  0  0  0  0  0  0  0  0  0  0  0
   -8.0218    1.3823  -12.5108 H   0  0  0  0  0  0  0  0  0  0  0  0
   -5.9894   -2.1156  -11.2910 H   0  0  0  0  0  0  0  0  0  0  0  0
   -7.0825   -2.7773   -9.1810 H   0  0  0  0  0  0  0  0  0  0  0  0
  1  2  1  0
  2  3  1  0
  3  4  2  0
  3  5  1  0
  5  6  2  0
  6  7  1  0
  7  8  1  0
  8  9  1  0
  9 10  1  0
 10 11  2  0
 11 12  1  0
 12 13  1  0
 13 14  1  0
 14 15  2  0
 14 16  1  0
 16 17  1  0
 17 18  1  0
 18 19  2  0
 19 20  1  0
 20 21  1  0
 20 22  2  0
 22 23  1  0
 23 24  1  0
 23 25  1  0
 23 26  1  0
 22 27  1  0
 12 28  2  0
 28 29  1  0
  7 30  2  0
 30 31  1  0
 31 32  2  0
 32  5  1  0
 29  9  2  0
 27 17  2  0
  1 33  1  0
  1 34  1  0
  1 35  1  0
  2 36  1  0
  6 37  1  0
 10 38  1  0
 11 39  1  0
 13 40  1  0
 16 41  1  0
 18 42  1  0
 19 43  1  0
 27 44  1  0
 28 45  1  0
 29 46  1  0
 30 47  1  0
 31 48  1  0
M  END
>  <meeko>  (10) 
{"is_sidechain": false}

>  <vina_affinity_kcal_mol>  (10) 
-8.161

>  <pose_rank>  (10) 
10

$$$$
