
     RDKit          3D

 66 70  0  0  0  0  0  0  0  0999 V2000
   -6.3197    2.0120    1.8856 C   0  0  0  0  0  0  0  0  0  0  0  0
   -4.9267    1.4526    1.7698 C   0  0  0  0  0  0  0  0  0  0  0  0
   -3.8513    2.1495    2.3433 C   0  0  0  0  0  0  0  0  0  0  0  0
   -2.5491    1.6517    2.2529 C   0  0  0  0  0  0  0  0  0  0  0  0
   -2.3065    0.4498    1.5787 C   0  0  0  0  0  0  0  0  0  0  0  0
   -0.9340   -0.1167    1.4595 C   0  0  0  0  0  0  0  0  0  0  0  0
   -0.8031   -1.3334    1.5083 O   0  0  0  0  0  0  0  0  0  0  0  0
    0.0650    0.8208    1.2655 N   0  0  0  0  0  0  0  0  0  0  0  0
    1.4508    0.5822    1.1552 C   0  0  0  0  0  0  0  0  0  0  0  0
    2.0416   -0.6669    1.3129 C   0  0  0  0  0  0  0  0  0  0  0  0
    3.4258   -0.8176    1.1844 C   0  0  0  0  0  0  0  0  0  0  0  0
    4.2562    0.2793    0.8982 C   0  0  0  0  0  0  0  0  0  0  0  0
    5.7489    0.0434    0.7544 C   0  0  0  0  0  0  0  0  0  0  0  0
    6.2573    0.4624   -0.5530 N   0  0  0  0  0  0  0  0  0  0  0  0
    5.8434   -0.4261   -1.6609 C   0  0  0  0  0  0  0  0  0  0  0  0
    6.9480   -1.3930   -2.1431 C   0  0  0  0  0  0  0  0  0  0  0  0
    8.1538   -0.6956   -2.6324 N   0  0  0  0  0  0  0  0  0  0  0  0
    9.3185   -1.5728   -2.5765 C   0  0  0  0  0  0  0  0  0  0  0  0
    8.3771    0.5735   -1.9117 C   0  0  0  0  0  0  0  0  0  0  0  0
    7.7255    0.6234   -0.5128 C   0  0  0  0  0  0  0  0  0  0  0  0
    3.6734    1.5577    0.7617 C   0  0  0  0  0  0  0  0  0  0  0  0
    4.4850    2.8035    0.4646 C   0  0  0  0  0  0  0  0  0  0  0  0
    5.6761    2.8676    1.1231 F   0  0  0  0  0  0  0  0  0  0  0  0
    3.8247    3.9428    0.8436 F   0  0  0  0  0  0  0  0  0  0  0  0
    4.7499    2.9783   -0.8582 F   0  0  0  0  0  0  0  0  0  0  0  0
    2.2712    1.6832    0.8817 C   0  0  0  0  0  0  0  0  0  0  0  0
   -3.3735   -0.2640    1.0227 C   0  0  0  0  0  0  0  0  0  0  0  0
   -4.6777    0.2344    1.1112 C   0  0  0  0  0  0  0  0  0  0  0  0
   -5.7418   -0.5218    0.5204 C   0  0  0  0  0  0  0  0  0  0  0  0
   -6.6461   -1.1418    0.0303 C   0  0  0  0  0  0  0  0  0  0  0  0
   -7.7275   -1.8596   -0.5431 C   0  0  0  0  0  0  0  0  0  0  0  0
   -7.7097   -3.0938   -1.1542 C   0  0  0  0  0  0  0  0  0  0  0  0
   -8.9627   -3.4568   -1.5857 N   0  0  0  0  0  0  0  0  0  0  0  0
   -9.7439   -2.4541   -1.2414 C   0  0  0  0  0  0  0  0  0  0  0  0
  -11.1320   -2.2592   -1.4207 C   0  0  0  0  0  0  0  0  0  0  0  0
  -11.6997   -1.1332   -0.9723 C   0  0  0  0  0  0  0  0  0  0  0  0
  -10.8147   -0.1481   -0.3050 C   0  0  0  0  0  0  0  0  0  0  0  0
   -9.5398   -0.2669   -0.1104 N   0  0  0  0  0  0  0  0  0  0  0  0
   -9.0369   -1.4464   -0.5980 N   0  0  0  0  0  0  0  0  0  0  0  0
   -6.3219    2.9762    2.4051 H   0  0  0  0  0  0  0  0  0  0  0  0
   -6.7500    2.1749    0.8921 H   0  0  0  0  0  0  0  0  0  0  0  0
   -6.9584    1.3287    2.4546 H   0  0  0  0  0  0  0  0  0  0  0  0
   -4.0251    3.0831    2.8754 H   0  0  0  0  0  0  0  0  0  0  0  0
   -1.7440    2.1961    2.7392 H   0  0  0  0  0  0  0  0  0  0  0  0
   -0.2291    1.7773    1.1170 H   0  0  0  0  0  0  0  0  0  0  0  0
    1.4542   -1.5526    1.5350 H   0  0  0  0  0  0  0  0  0  0  0  0
    3.8494   -1.8135    1.3032 H   0  0  0  0  0  0  0  0  0  0  0  0
    5.9959   -1.0108    0.9382 H   0  0  0  0  0  0  0  0  0  0  0  0
    6.2362    0.6058    1.5618 H   0  0  0  0  0  0  0  0  0  0  0  0
    4.9468   -1.0050   -1.4119 H   0  0  0  0  0  0  0  0  0  0  0  0
    5.5517    0.2154   -2.5029 H   0  0  0  0  0  0  0  0  0  0  0  0
    7.1947   -2.0679   -1.3119 H   0  0  0  0  0  0  0  0  0  0  0  0
    6.5506   -2.0147   -2.9538 H   0  0  0  0  0  0  0  0  0  0  0  0
    9.5828   -1.8444   -1.5482 H   0  0  0  0  0  0  0  0  0  0  0  0
    9.1349   -2.4935   -3.1414 H   0  0  0  0  0  0  0  0  0  0  0  0
   10.1860   -1.0892   -3.0390 H   0  0  0  0  0  0  0  0  0  0  0  0
    7.9519    1.3807   -2.5225 H   0  0  0  0  0  0  0  0  0  0  0  0
    9.4469    0.8024   -1.8272 H   0  0  0  0  0  0  0  0  0  0  0  0
    8.1872   -0.1567    0.1082 H   0  0  0  0  0  0  0  0  0  0  0  0
    7.9590    1.5872   -0.0454 H   0  0  0  0  0  0  0  0  0  0  0  0
    1.8245    2.6691    0.7570 H   0  0  0  0  0  0  0  0  0  0  0  0
   -3.1830   -1.2100    0.5180 H   0  0  0  0  0  0  0  0  0  0  0  0
   -6.8567   -3.7430   -1.3068 H   0  0  0  0  0  0  0  0  0  0  0  0
  -11.7061   -3.0312   -1.9197 H   0  0  0  0  0  0  0  0  0  0  0  0
  -12.7534   -0.9127   -1.0720 H   0  0  0  0  0  0  0  0  0  0  0  0
  -11.3208    0.7656    0.0497 H   0  0  0  0  0  0  0  0  0  0  0  0
  1  2  1  0
  2  3  1  0
  3  4  2  0
  4  5  1  0
  5  6  1  0
  6  7  2  0
  6  8  1  0
  8  9  1  0
  9 10  1  0
 10 11  2  0
 11 12  1  0
 12 13  1  0
 13 14  1  0
 14 15  1  0
 15 16  1  0
 16 17  1  0
 17 18  1  0
 17 19  1  0
 19 20  1  0
 12 21  2  0
 21 22  1  0
 22 23  1  0
 22 24  1  0
 22 25  1  0
 21 26  1  0
  5 27  2  0
 27 28  1  0
 28 29  1  0
 29 30  3  0
 30 31  1  0
 31 32  2  0
 32 33  1  0
 33 34  2  0
 34 35  1  0
 35 36  2  0
 36 37  1  0
 37 38  2  0
 38 39  1  0
 28  2  2  0
 39 31  1  0
 26  9  2  0
 39 34  1  0
 20 14  1  0
  1 40  1  0
  1 41  1  0
  1 42  1  0
  3 43  1  0
  4 44  1  0
  8 45  1  0
 10 46  1  0
 11 47  1  0
 13 48  1  0
 13 49  1  0
 15 50  1  0
 15 51  1  0
 16 52  1  0
 16 53  1  0
 18 54  1  0
 18 55  1  0
 18 56  1  0
 19 57  1  0
 19 58  1  0
 20 59  1  0
 20 60  1  0
 26 61  1  0
 27 62  1  0
 32 63  1  0
 35 64  1  0
 36 65  1  0
 37 66  1  0
M  END
$$$$
