
     RDKit          3D

 66 70  0  0  0  0  0  0  0  0999 V2000
   -7.0930    2.3030  -17.9080 C   0  0  0  0  0  0  0  0  0  0  0  0
   -7.9680    1.7910  -16.7950 C   0  0  0  0  0  0  0  0  0  0  0  0
   -7.8220    0.4660  -16.3540 C   0  0  0  0  0  0  0  0  0  0  0  0
   -8.6180   -0.0340  -15.3210 C   0  0  0  0  0  0  0  0  0  0  0  0
   -9.5770    0.7880  -14.7190 C   0  0  0  0  0  0  0  0  0  0  0  0
  -10.4470    0.2950  -13.6140 C   0  0  0  0  0  0  0  0  0  0  0  0
  -10.6400   -0.9100  -13.5220 O   0  0  0  0  0  0  0  0  0  0  0  0
  -10.9210    1.2810  -12.7670 N   0  0  0  0  0  0  0  0  0  0  0  0
  -11.7870    1.1170  -11.6650 C   0  0  0  0  0  0  0  0  0  0  0  0
  -13.1200    1.5140  -11.6540 C   0  0  0  0  0  0  0  0  0  0  0  0
  -13.9110    1.3110  -10.5190 C   0  0  0  0  0  0  0  0  0  0  0  0
  -13.3880    0.7080   -9.3630 C   0  0  0  0  0  0  0  0  0  0  0  0
  -14.3060    0.5020   -8.1720 C   0  0  0  0  0  0  0  0  0  0  0  0
  -15.4310   -0.3810   -8.4810 N   0  0  0  0  0  0  0  0  0  0  0  0
  -16.4760   -0.3960   -7.4340 C   0  0  0  0  0  0  0  0  0  0  0  0
  -16.4440   -1.6470   -6.5260 C   0  0  0  0  0  0  0  0  0  0  0  0
  -16.6210   -2.9080   -7.2720 N   0  0  0  0  0  0  0  0  0  0  0  0
  -16.0770   -4.0360   -6.5220 C   0  0  0  0  0  0  0  0  0  0  0  0
  -16.0550   -2.8190   -8.6330 C   0  0  0  0  0  0  0  0  0  0  0  0
  -14.9540   -1.7470   -8.7840 C   0  0  0  0  0  0  0  0  0  0  0  0
  -12.0290    0.3240   -9.3500 C   0  0  0  0  0  0  0  0  0  0  0  0
  -11.3690   -0.3230   -8.1480 C   0  0  0  0  0  0  0  0  0  0  0  0
  -11.4540    0.4070   -7.0000 F   0  0  0  0  0  0  0  0  0  0  0  0
  -10.0240   -0.4990   -8.3390 F   0  0  0  0  0  0  0  0  0  0  0  0
  -11.8480   -1.5650   -7.8670 F   0  0  0  0  0  0  0  0  0  0  0  0
  -11.2530    0.5270  -10.5140 C   0  0  0  0  0  0  0  0  0  0  0  0
   -9.7170    2.1150  -15.1350 C   0  0  0  0  0  0  0  0  0  0  0  0
   -8.9220    2.6180  -16.1710 C   0  0  0  0  0  0  0  0  0  0  0  0
   -9.1010    3.9800  -16.5750 C   0  0  0  0  0  0  0  0  0  0  0  0
   -9.2390    5.1200  -16.9270 C   0  0  0  0  0  0  0  0  0  0  0  0
   -9.4000    6.4610  -17.3620 C   0  0  0  0  0  0  0  0  0  0  0  0
   -9.4800    7.6060  -16.6020 C   0  0  0  0  0  0  0  0  0  0  0  0
   -9.6380    8.7210  -17.3900 N   0  0  0  0  0  0  0  0  0  0  0  0
   -9.6520    8.2630  -18.6250 C   0  0  0  0  0  0  0  0  0  0  0  0
   -9.7860    8.9380  -19.8590 C   0  0  0  0  0  0  0  0  0  0  0  0
   -9.7700    8.2340  -20.9980 C   0  0  0  0  0  0  0  0  0  0  0  0
   -9.6110    6.7640  -20.8820 C   0  0  0  0  0  0  0  0  0  0  0  0
   -9.4850    6.0880  -19.7840 N   0  0  0  0  0  0  0  0  0  0  0  0
   -9.5110    6.8820  -18.6660 N   0  0  0  0  0  0  0  0  0  0  0  0
   -6.2181    2.8149  -17.4807 H   0  0  0  0  0  0  0  0  0  0  0  0
   -6.7572    1.4589  -18.5283 H   0  0  0  0  0  0  0  0  0  0  0  0
   -7.6644    3.0093  -18.5283 H   0  0  0  0  0  0  0  0  0  0  0  0
   -7.0725   -0.1854  -16.8273 H   0  0  0  0  0  0  0  0  0  0  0  0
   -8.4912   -1.0725  -14.9812 H   0  0  0  0  0  0  0  0  0  0  0  0
  -10.5590    2.2150  -12.9050 H   0  0  0  0  0  0  0  0  0  0  0  0
  -13.5550    1.9911  -12.5446 H   0  0  0  0  0  0  0  0  0  0  0  0
  -14.9637    1.6298  -10.5315 H   0  0  0  0  0  0  0  0  0  0  0  0
  -13.7244    0.0588   -7.3502 H   0  0  0  0  0  0  0  0  0  0  0  0
  -14.7169    1.4831   -7.8916 H   0  0  0  0  0  0  0  0  0  0  0  0
  -16.3430    0.4936   -6.8008 H   0  0  0  0  0  0  0  0  0  0  0  0
  -17.4452   -0.4071   -7.9542 H   0  0  0  0  0  0  0  0  0  0  0  0
  -15.4738   -1.6794   -6.0086 H   0  0  0  0  0  0  0  0  0  0  0  0
  -17.2839   -1.5622   -5.8208 H   0  0  0  0  0  0  0  0  0  0  0  0
  -16.1718   -3.8394   -5.4439 H   0  0  0  0  0  0  0  0  0  0  0  0
  -16.6336   -4.9495   -6.7785 H   0  0  0  0  0  0  0  0  0  0  0  0
  -15.0156   -4.1692   -6.7785 H   0  0  0  0  0  0  0  0  0  0  0  0
  -15.6242   -3.7970   -8.8935 H   0  0  0  0  0  0  0  0  0  0  0  0
  -16.8778   -2.5280   -9.3025 H   0  0  0  0  0  0  0  0  0  0  0  0
  -14.1307   -1.9911   -8.0966 H   0  0  0  0  0  0  0  0  0  0  0  0
  -14.6286   -1.7559   -9.8347 H   0  0  0  0  0  0  0  0  0  0  0  0
  -10.1990    0.2121  -10.5150 H   0  0  0  0  0  0  0  0  0  0  0  0
  -10.4556    2.7670  -14.6457 H   0  0  0  0  0  0  0  0  0  0  0  0
   -9.4245    7.6260  -15.5036 H   0  0  0  0  0  0  0  0  0  0  0  0
   -9.9024   10.0315  -19.8838 H   0  0  0  0  0  0  0  0  0  0  0  0
   -9.8704    8.7248  -21.9773 H   0  0  0  0  0  0  0  0  0  0  0  0
   -9.5989    6.1911  -21.8210 H   0  0  0  0  0  0  0  0  0  0  0  0
  1  2  1  0
  2  3  1  0
  3  4  2  0
  4  5  1  0
  5  6  1  0
  6  7  2  0
  6  8  1  0
  8  9  1  0
  9 10  1  0
 10 11  2  0
 11 12  1  0
 12 13  1  0
 13 14  1  0
 14 15  1  0
 15 16  1  0
 16 17  1  0
 17 18  1  0
 17 19  1  0
 19 20  1  0
 12 21  2  0
 21 22  1  0
 22 23  1  0
 22 24  1  0
 22 25  1  0
 21 26  1  0
  5 27  2  0
 27 28  1  0
 28 29  1  0
 29 30  3  0
 30 31  1  0
 31 32  2  0
 32 33  1  0
 33 34  2  0
 34 35  1  0
 35 36  2  0
 36 37  1  0
 37 38  2  0
 38 39  1  0
 28  2  2  0
 39 31  1  0
 26  9  2  0
 39 34  1  0
 20 14  1  0
  1 40  1  0
  1 41  1  0
  1 42  1  0
  3 43  1  0
  4 44  1  0
  8 45  1  0
 10 46  1  0
 11 47  1  0
 13 48  1  0
 13 49  1  0
 15 50  1  0
 15 51  1  0
 16 52  1  0
 16 53  1  0
 18 54  1  0
 18 55  1  0
 18 56  1  0
 19 57  1  0
 19 58  1  0
 20 59  1  0
 20 60  1  0
 26 61  1  0
 27 62  1  0
 32 63  1  0
 35 64  1  0
 36 65  1  0
 37 66  1  0
M  END
>  <meeko>  (1) 
{"is_sidechain": false}

>  <vina_affinity_kcal_mol>  (1) 
-10.116

>  <pose_rank>  (1) 
1

$$$$

     RDKit          3D

 66 70  0  0  0  0  0  0  0  0999 V2000
  -12.9830   -1.8150   -6.8190 C   0  0  0  0  0  0  0  0  0  0  0  0
  -12.8600   -0.9590   -8.0510 C   0  0  0  0  0  0  0  0  0  0  0  0
  -11.6110   -0.8210   -8.6770 C   0  0  0  0  0  0  0  0  0  0  0  0
  -11.4700   -0.0350   -9.8240 C   0  0  0  0  0  0  0  0  0  0  0  0
  -12.5800    0.6310  -10.3540 C   0  0  0  0  0  0  0  0  0  0  0  0
  -12.4740    1.4780  -11.5750 C   0  0  0  0  0  0  0  0  0  0  0  0
  -13.4770    2.0600  -11.9660 O   0  0  0  0  0  0  0  0  0  0  0  0
  -11.2060    1.5440  -12.1260 N   0  0  0  0  0  0  0  0  0  0  0  0
  -10.8170    2.2330  -13.2940 C   0  0  0  0  0  0  0  0  0  0  0  0
  -11.3380    3.4620  -13.6840 C   0  0  0  0  0  0  0  0  0  0  0  0
  -10.8940    4.0810  -14.8570 C   0  0  0  0  0  0  0  0  0  0  0  0
   -9.9190    3.4830  -15.6730 C   0  0  0  0  0  0  0  0  0  0  0  0
   -9.4690    4.2160  -16.9240 C   0  0  0  0  0  0  0  0  0  0  0  0
  -10.0630    5.5490  -17.0340 N   0  0  0  0  0  0  0  0  0  0  0  0
  -11.0810    5.6550  -18.1030 C   0  0  0  0  0  0  0  0  0  0  0  0
  -10.5810    6.3620  -19.3830 C   0  0  0  0  0  0  0  0  0  0  0  0
  -10.1240    7.7450  -19.1410 N   0  0  0  0  0  0  0  0  0  0  0  0
   -9.2080    8.1800  -20.1890 C   0  0  0  0  0  0  0  0  0  0  0  0
   -9.5410    7.8950  -17.7920 C   0  0  0  0  0  0  0  0  0  0  0  0
   -9.0120    6.5770  -17.1880 C   0  0  0  0  0  0  0  0  0  0  0  0
   -9.4000    2.2230  -15.3030 C   0  0  0  0  0  0  0  0  0  0  0  0
   -8.3540    1.4920  -16.1230 C   0  0  0  0  0  0  0  0  0  0  0  0
   -8.7560    1.1650  -17.3830 F   0  0  0  0  0  0  0  0  0  0  0  0
   -8.0080    0.2950  -15.5540 F   0  0  0  0  0  0  0  0  0  0  0  0
   -7.1820    2.1740  -16.2420 F   0  0  0  0  0  0  0  0  0  0  0  0
   -9.8530    1.6240  -14.1060 C   0  0  0  0  0  0  0  0  0  0  0  0
  -13.8340    0.4840   -9.7520 C   0  0  0  0  0  0  0  0  0  0  0  0
  -13.9770   -0.3020   -8.6030 C   0  0  0  0  0  0  0  0  0  0  0  0
  -15.2760   -0.4190   -8.0100 C   0  0  0  0  0  0  0  0  0  0  0  0
  -16.3570   -0.5290   -7.4990 C   0  0  0  0  0  0  0  0  0  0  0  0
  -17.6390   -0.6390   -6.9010 C   0  0  0  0  0  0  0  0  0  0  0  0
  -18.1720   -1.7000   -6.2030 C   0  0  0  0  0  0  0  0  0  0  0  0
  -19.4500   -1.4280   -5.7770 N   0  0  0  0  0  0  0  0  0  0  0  0
  -19.6980   -0.2080   -6.2080 C   0  0  0  0  0  0  0  0  0  0  0  0
  -20.8480    0.6030   -6.0740 C   0  0  0  0  0  0  0  0  0  0  0  0
  -20.8520    1.8290   -6.6130 C   0  0  0  0  0  0  0  0  0  0  0  0
  -19.6260    2.2580   -7.3280 C   0  0  0  0  0  0  0  0  0  0  0  0
  -18.5440    1.5640   -7.4850 N   0  0  0  0  0  0  0  0  0  0  0  0
  -18.6210    0.3230   -6.9050 N   0  0  0  0  0  0  0  0  0  0  0  0
  -12.8922   -1.1833   -5.9231 H   0  0  0  0  0  0  0  0  0  0  0  0
  -13.9623   -2.3159   -6.8168 H   0  0  0  0  0  0  0  0  0  0  0  0
  -12.1843   -2.5714   -6.8168 H   0  0  0  0  0  0  0  0  0  0  0  0
  -10.7336   -1.3372   -8.2601 H   0  0  0  0  0  0  0  0  0  0  0  0
  -10.4874    0.0598  -10.3093 H   0  0  0  0  0  0  0  0  0  0  0  0
  -10.4580    1.1080  -11.6040 H   0  0  0  0  0  0  0  0  0  0  0  0
  -12.1050    3.9509  -13.0654 H   0  0  0  0  0  0  0  0  0  0  0  0
  -11.3162    5.0547  -15.1462 H   0  0  0  0  0  0  0  0  0  0  0  0
   -8.3740    4.3182  -16.8989 H   0  0  0  0  0  0  0  0  0  0  0  0
   -9.7993    3.6290  -17.7936 H   0  0  0  0  0  0  0  0  0  0  0  0
  -11.4048    4.6391  -18.3736 H   0  0  0  0  0  0  0  0  0  0  0  0
  -11.9002    6.2692  -17.7009 H   0  0  0  0  0  0  0  0  0  0  0  0
   -9.7420    5.7837  -19.7971 H   0  0  0  0  0  0  0  0  0  0  0  0
  -11.4297    6.4148  -20.0808 H   0  0  0  0  0  0  0  0  0  0  0  0
   -8.3044    8.6091  -19.7313 H   0  0  0  0  0  0  0  0  0  0  0  0
   -8.9290    7.3182  -20.8131 H   0  0  0  0  0  0  0  0  0  0  0  0
   -9.6996    8.9408  -20.8131 H   0  0  0  0  0  0  0  0  0  0  0  0
   -8.7053    8.6076  -17.8534 H   0  0  0  0  0  0  0  0  0  0  0  0
  -10.3487    8.2461  -17.1329 H   0  0  0  0  0  0  0  0  0  0  0  0
   -8.2268    6.1794  -17.8479 H   0  0  0  0  0  0  0  0  0  0  0  0
   -8.6270    6.8068  -16.1835 H   0  0  0  0  0  0  0  0  0  0  0  0
   -9.4364    0.6518  -13.8038 H   0  0  0  0  0  0  0  0  0  0  0  0
  -14.7113    0.9882  -10.1835 H   0  0  0  0  0  0  0  0  0  0  0  0
  -17.6423   -2.6447   -6.0110 H   0  0  0  0  0  0  0  0  0  0  0  0
  -21.7304    0.2310   -5.5327 H   0  0  0  0  0  0  0  0  0  0  0  0
  -21.7275    2.4896   -6.5288 H   0  0  0  0  0  0  0  0  0  0  0  0
  -19.6366    3.2657   -7.7688 H   0  0  0  0  0  0  0  0  0  0  0  0
  1  2  1  0
  2  3  1  0
  3  4  2  0
  4  5  1  0
  5  6  1  0
  6  7  2  0
  6  8  1  0
  8  9  1  0
  9 10  1  0
 10 11  2  0
 11 12  1  0
 12 13  1  0
 13 14  1  0
 14 15  1  0
 15 16  1  0
 16 17  1  0
 17 18  1  0
 17 19  1  0
 19 20  1  0
 12 21  2  0
 21 22  1  0
 22 23  1  0
 22 24  1  0
 22 25  1  0
 21 26  1  0
  5 27  2  0
 27 28  1  0
 28 29  1  0
 29 30  3  0
 30 31  1  0
 31 32  2  0
 32 33  1  0
 33 34  2  0
 34 35  1  0
 35 36  2  0
 36 37  1  0
 37 38  2  0
 38 39  1  0
 28  2  2  0
 39 31  1  0
 26  9  2  0
 39 34  1  0
 20 14  1  0
  1 40  1  0
  1 41  1  0
  1 42  1  0
  3 43  1  0
  4 44  1  0
  8 45  1  0
 10 46  1  0
 11 47  1  0
 13 48  1  0
 13 49  1  0
 15 50  1  0
 15 51  1  0
 16 52  1  0
 16 53  1  0
 18 54  1  0
 18 55  1  0
 18 56  1  0
 19 57  1  0
 19 58  1  0
 20 59  1  0
 20 60  1  0
 26 61  1  0
 27 62  1  0
 32 63  1  0
 35 64  1  0
 36 65  1  0
 37 66  1  0
M  END
>  <meeko>  (2) 
{"is_sidechain": false}

>  <vina_affinity_kcal_mol>  (2) 
-9.908

>  <pose_rank>  (2) 
2

$$$$

     RDKit          3D

 66 70  0  0  0  0  0  0  0  0999 V2000
   -9.3550    5.4550  -17.2380 C   0  0  0  0  0  0  0  0  0  0  0  0
  -10.2410    4.8290  -16.1950 C   0  0  0  0  0  0  0  0  0  0  0  0
  -11.4650    5.4370  -15.8700 C   0  0  0  0  0  0  0  0  0  0  0  0
  -12.3080    4.8750  -14.9090 C   0  0  0  0  0  0  0  0  0  0  0  0
  -11.9320    3.6980  -14.2520 C   0  0  0  0  0  0  0  0  0  0  0  0
  -12.8010    3.0660  -13.2210 C   0  0  0  0  0  0  0  0  0  0  0  0
  -13.9820    3.3870  -13.1820 O   0  0  0  0  0  0  0  0  0  0  0  0
  -12.1660    2.1300  -12.4230 N   0  0  0  0  0  0  0  0  0  0  0  0
  -12.7240    1.4040  -11.3490 C   0  0  0  0  0  0  0  0  0  0  0  0
  -14.0520    1.5010  -10.9490 C   0  0  0  0  0  0  0  0  0  0  0  0
  -14.5260    0.7420   -9.8740 C   0  0  0  0  0  0  0  0  0  0  0  0
  -13.6810   -0.1310   -9.1690 C   0  0  0  0  0  0  0  0  0  0  0  0
  -14.2640   -0.9390   -8.0230 C   0  0  0  0  0  0  0  0  0  0  0  0
  -15.7230   -0.8450   -7.9590 N   0  0  0  0  0  0  0  0  0  0  0  0
  -16.2130   -0.0370   -6.8210 C   0  0  0  0  0  0  0  0  0  0  0  0
  -16.7540   -0.8720   -5.6390 C   0  0  0  0  0  0  0  0  0  0  0  0
  -17.8850   -1.7430   -6.0140 N   0  0  0  0  0  0  0  0  0  0  0  0
  -18.0190   -2.8540   -5.0770 C   0  0  0  0  0  0  0  0  0  0  0  0
  -17.7740   -2.2040   -7.4130 C   0  0  0  0  0  0  0  0  0  0  0  0
  -16.3320   -2.1920   -7.9640 C   0  0  0  0  0  0  0  0  0  0  0  0
  -12.3240   -0.2200   -9.5480 C   0  0  0  0  0  0  0  0  0  0  0  0
  -11.3310   -1.1240   -8.8420 C   0  0  0  0  0  0  0  0  0  0  0  0
  -11.0100   -0.7280   -7.5790 F   0  0  0  0  0  0  0  0  0  0  0  0
  -10.1310   -1.1720   -9.5000 F   0  0  0  0  0  0  0  0  0  0  0  0
  -11.7380   -2.4200   -8.7620 F   0  0  0  0  0  0  0  0  0  0  0  0
  -11.8720    0.5460  -10.6450 C   0  0  0  0  0  0  0  0  0  0  0  0
  -10.7260    3.0720  -14.5820 C   0  0  0  0  0  0  0  0  0  0  0  0
   -9.8790    3.6340  -15.5440 C   0  0  0  0  0  0  0  0  0  0  0  0
   -8.6470    2.9670  -15.8470 C   0  0  0  0  0  0  0  0  0  0  0  0
   -7.6110    2.4230  -16.1130 C   0  0  0  0  0  0  0  0  0  0  0  0
   -6.3940    1.7620  -16.4210 C   0  0  0  0  0  0  0  0  0  0  0  0
   -5.2240    2.3000  -16.9090 C   0  0  0  0  0  0  0  0  0  0  0  0
   -4.2620    1.3340  -17.0820 N   0  0  0  0  0  0  0  0  0  0  0  0
   -4.8350    0.2120  -16.7000 C   0  0  0  0  0  0  0  0  0  0  0  0
   -4.3390   -1.1100  -16.6530 C   0  0  0  0  0  0  0  0  0  0  0  0
   -5.1350   -2.0950  -16.2170 C   0  0  0  0  0  0  0  0  0  0  0  0
   -6.5100   -1.7220  -15.8080 C   0  0  0  0  0  0  0  0  0  0  0  0
   -7.0240   -0.5330  -15.8270 N   0  0  0  0  0  0  0  0  0  0  0  0
   -6.1450    0.4160  -16.2850 N   0  0  0  0  0  0  0  0  0  0  0  0
   -8.5521    6.0223  -16.7445 H   0  0  0  0  0  0  0  0  0  0  0  0
   -8.9144    4.6666  -17.8659 H   0  0  0  0  0  0  0  0  0  0  0  0
   -9.9509    6.1337  -17.8659 H   0  0  0  0  0  0  0  0  0  0  0  0
  -11.7627    6.3661  -16.3781 H   0  0  0  0  0  0  0  0  0  0  0  0
  -13.2670    5.3572  -14.6686 H   0  0  0  0  0  0  0  0  0  0  0  0
  -11.2180    1.8850  -12.6730 H   0  0  0  0  0  0  0  0  0  0  0  0
  -14.7347    2.1794  -11.4817 H   0  0  0  0  0  0  0  0  0  0  0  0
  -15.5808    0.8304   -9.5749 H   0  0  0  0  0  0  0  0  0  0  0  0
  -13.9836   -1.9943   -8.1564 H   0  0  0  0  0  0  0  0  0  0  0  0
  -13.8603   -0.5299   -7.0851 H   0  0  0  0  0  0  0  0  0  0  0  0
  -15.3813    0.5823   -6.4540 H   0  0  0  0  0  0  0  0  0  0  0  0
  -17.0556    0.5616   -7.1975 H   0  0  0  0  0  0  0  0  0  0  0  0
  -15.9391   -1.5028   -5.2543 H   0  0  0  0  0  0  0  0  0  0  0  0
  -17.1220   -0.1657   -4.8803 H   0  0  0  0  0  0  0  0  0  0  0  0
  -17.9729   -2.4721   -4.0465 H   0  0  0  0  0  0  0  0  0  0  0  0
  -18.9842   -3.3561   -5.2392 H   0  0  0  0  0  0  0  0  0  0  0  0
  -17.2008   -3.5712   -5.2392 H   0  0  0  0  0  0  0  0  0  0  0  0
  -18.1577   -3.2333   -7.4698 H   0  0  0  0  0  0  0  0  0  0  0  0
  -18.3560   -1.5013   -8.0274 H   0  0  0  0  0  0  0  0  0  0  0  0
  -15.7143   -2.8583   -7.3440 H   0  0  0  0  0  0  0  0  0  0  0  0
  -16.3767   -2.5291   -9.0101 H   0  0  0  0  0  0  0  0  0  0  0  0
  -10.8196    0.4658  -10.9550 H   0  0  0  0  0  0  0  0  0  0  0  0
  -10.4417    2.1337  -14.0833 H   0  0  0  0  0  0  0  0  0  0  0  0
   -5.0780    3.3672  -17.1320 H   0  0  0  0  0  0  0  0  0  0  0  0
   -3.3090   -1.3283  -16.9714 H   0  0  0  0  0  0  0  0  0  0  0  0
   -4.7834   -3.1360  -16.1647 H   0  0  0  0  0  0  0  0  0  0  0  0
   -7.1588   -2.5362  -15.4528 H   0  0  0  0  0  0  0  0  0  0  0  0
  1  2  1  0
  2  3  1  0
  3  4  2  0
  4  5  1  0
  5  6  1  0
  6  7  2  0
  6  8  1  0
  8  9  1  0
  9 10  1  0
 10 11  2  0
 11 12  1  0
 12 13  1  0
 13 14  1  0
 14 15  1  0
 15 16  1  0
 16 17  1  0
 17 18  1  0
 17 19  1  0
 19 20  1  0
 12 21  2  0
 21 22  1  0
 22 23  1  0
 22 24  1  0
 22 25  1  0
 21 26  1  0
  5 27  2  0
 27 28  1  0
 28 29  1  0
 29 30  3  0
 30 31  1  0
 31 32  2  0
 32 33  1  0
 33 34  2  0
 34 35  1  0
 35 36  2  0
 36 37  1  0
 37 38  2  0
 38 39  1  0
 28  2  2  0
 39 31  1  0
 26  9  2  0
 39 34  1  0
 20 14  1  0
  1 40  1  0
  1 41  1  0
  1 42  1  0
  3 43  1  0
  4 44  1  0
  8 45  1  0
 10 46  1  0
 11 47  1  0
 13 48  1  0
 13 49  1  0
 15 50  1  0
 15 51  1  0
 16 52  1  0
 16 53  1  0
 18 54  1  0
 18 55  1  0
 18 56  1  0
 19 57  1  0
 19 58  1  0
 20 59  1  0
 20 60  1  0
 26 61  1  0
 27 62  1  0
 32 63  1  0
 35 64  1  0
 36 65  1  0
 37 66  1  0
M  END
>  <meeko>  (3) 
{"is_sidechain": false}

>  <vina_affinity_kcal_mol>  (3) 
-9.804

>  <pose_rank>  (3) 
3

$$$$

     RDKit          3D

 66 70  0  0  0  0  0  0  0  0999 V2000
  -14.6100   -1.6340   -7.6150 C   0  0  0  0  0  0  0  0  0  0  0  0
  -14.2520   -0.6760   -8.7190 C   0  0  0  0  0  0  0  0  0  0  0  0
  -15.0200    0.4850   -8.9050 C   0  0  0  0  0  0  0  0  0  0  0  0
  -14.7070    1.3930   -9.9200 C   0  0  0  0  0  0  0  0  0  0  0  0
  -13.6230    1.1440  -10.7690 C   0  0  0  0  0  0  0  0  0  0  0  0
  -13.2540    2.0850  -11.8640 C   0  0  0  0  0  0  0  0  0  0  0  0
  -14.0520    2.9630  -12.1660 O   0  0  0  0  0  0  0  0  0  0  0  0
  -11.9980    1.8790  -12.4070 N   0  0  0  0  0  0  0  0  0  0  0  0
  -11.4010    2.5870  -13.4710 C   0  0  0  0  0  0  0  0  0  0  0  0
  -11.8180    3.8410  -13.9040 C   0  0  0  0  0  0  0  0  0  0  0  0
  -11.1670    4.4760  -14.9670 C   0  0  0  0  0  0  0  0  0  0  0  0
  -10.0860    3.8700  -15.6270 C   0  0  0  0  0  0  0  0  0  0  0  0
   -9.4130    4.6210  -16.7620 C   0  0  0  0  0  0  0  0  0  0  0  0
  -10.0670    5.8980  -17.0520 N   0  0  0  0  0  0  0  0  0  0  0  0
  -11.0660    5.8180  -18.1390 C   0  0  0  0  0  0  0  0  0  0  0  0
  -10.5740    6.3790  -19.4920 C   0  0  0  0  0  0  0  0  0  0  0  0
  -10.1880    7.8020  -19.4220 N   0  0  0  0  0  0  0  0  0  0  0  0
   -9.2710    8.1450  -20.5050 C   0  0  0  0  0  0  0  0  0  0  0  0
   -9.6400    8.1520  -18.0960 C   0  0  0  0  0  0  0  0  0  0  0  0
   -9.0620    6.9480  -17.3200 C   0  0  0  0  0  0  0  0  0  0  0  0
   -9.6690    2.5840  -15.2160 C   0  0  0  0  0  0  0  0  0  0  0  0
   -8.5200    1.8430  -15.8730 C   0  0  0  0  0  0  0  0  0  0  0  0
   -7.3230    2.4890  -15.8030 F   0  0  0  0  0  0  0  0  0  0  0  0
   -8.7330    1.6620  -17.2140 F   0  0  0  0  0  0  0  0  0  0  0  0
   -8.3270    0.5910  -15.3780 F   0  0  0  0  0  0  0  0  0  0  0  0
  -10.3320    1.9690  -14.1310 C   0  0  0  0  0  0  0  0  0  0  0  0
  -12.8380    0.0020  -10.5800 C   0  0  0  0  0  0  0  0  0  0  0  0
  -13.1510   -0.9090   -9.5650 C   0  0  0  0  0  0  0  0  0  0  0  0
  -12.3280   -2.0720   -9.4100 C   0  0  0  0  0  0  0  0  0  0  0  0
  -11.6500   -3.0530   -9.2650 C   0  0  0  0  0  0  0  0  0  0  0  0
  -10.8650   -4.2230   -9.0990 C   0  0  0  0  0  0  0  0  0  0  0  0
   -9.5420   -4.3230   -8.7330 C   0  0  0  0  0  0  0  0  0  0  0  0
   -9.1350   -5.6350   -8.6800 N   0  0  0  0  0  0  0  0  0  0  0  0
  -10.2010   -6.3340   -9.0090 C   0  0  0  0  0  0  0  0  0  0  0  0
  -10.3920   -7.7300   -9.1260 C   0  0  0  0  0  0  0  0  0  0  0  0
  -11.5930   -8.2000   -9.4820 C   0  0  0  0  0  0  0  0  0  0  0  0
  -12.6620   -7.2040   -9.7350 C   0  0  0  0  0  0  0  0  0  0  0  0
  -12.5510   -5.9170   -9.6460 N   0  0  0  0  0  0  0  0  0  0  0  0
  -11.2920   -5.5170   -9.2770 N   0  0  0  0  0  0  0  0  0  0  0  0
  -14.4309   -1.1547   -6.6412 H   0  0  0  0  0  0  0  0  0  0  0  0
  -15.6717   -1.9094   -7.6984 H   0  0  0  0  0  0  0  0  0  0  0  0
  -13.9891   -2.5381   -7.6984 H   0  0  0  0  0  0  0  0  0  0  0  0
  -15.8773    0.6817   -8.2445 H   0  0  0  0  0  0  0  0  0  0  0  0
  -15.3120    2.3023  -10.0514 H   0  0  0  0  0  0  0  0  0  0  0  0
  -11.4110    1.1920  -11.9520 H   0  0  0  0  0  0  0  0  0  0  0  0
  -12.6652    4.3368  -13.4075 H   0  0  0  0  0  0  0  0  0  0  0  0
  -11.5088    5.4697  -15.2922 H   0  0  0  0  0  0  0  0  0  0  0  0
   -8.3662    4.8151  -16.4853 H   0  0  0  0  0  0  0  0  0  0  0  0
   -9.4824    3.9963  -17.6648 H   0  0  0  0  0  0  0  0  0  0  0  0
  -11.3373    4.7616  -18.2815 H   0  0  0  0  0  0  0  0  0  0  0  0
  -11.9201    6.4388  -17.8305 H   0  0  0  0  0  0  0  0  0  0  0  0
   -9.7004    5.7947  -19.8166 H   0  0  0  0  0  0  0  0  0  0  0  0
  -11.4092    6.3000  -20.2034 H   0  0  0  0  0  0  0  0  0  0  0  0
   -8.3201    8.5007  -20.0815 H   0  0  0  0  0  0  0  0  0  0  0  0
   -9.0863    7.2552  -21.1247 H   0  0  0  0  0  0  0  0  0  0  0  0
   -9.7156    8.9376  -21.1247 H   0  0  0  0  0  0  0  0  0  0  0  0
   -8.8373    8.8908  -18.2370 H   0  0  0  0  0  0  0  0  0  0  0  0
  -10.4758    8.5453  -17.4988 H   0  0  0  0  0  0  0  0  0  0  0  0
   -8.2453    6.5088  -17.9118 H   0  0  0  0  0  0  0  0  0  0  0  0
   -8.7091    7.3218  -16.3475 H   0  0  0  0  0  0  0  0  0  0  0  0
   -9.9989    0.9760  -13.7949 H   0  0  0  0  0  0  0  0  0  0  0  0
  -11.9710   -0.1808  -11.2319 H   0  0  0  0  0  0  0  0  0  0  0  0
   -8.8931   -3.4629   -8.5112 H   0  0  0  0  0  0  0  0  0  0  0  0
   -9.5613   -8.4229   -8.9263 H   0  0  0  0  0  0  0  0  0  0  0  0
  -11.7795   -9.2794   -9.5827 H   0  0  0  0  0  0  0  0  0  0  0  0
  -13.6468   -7.5974  -10.0272 H   0  0  0  0  0  0  0  0  0  0  0  0
  1  2  1  0
  2  3  1  0
  3  4  2  0
  4  5  1  0
  5  6  1  0
  6  7  2  0
  6  8  1  0
  8  9  1  0
  9 10  1  0
 10 11  2  0
 11 12  1  0
 12 13  1  0
 13 14  1  0
 14 15  1  0
 15 16  1  0
 16 17  1  0
 17 18  1  0
 17 19  1  0
 19 20  1  0
 12 21  2  0
 21 22  1  0
 22 23  1  0
 22 24  1  0
 22 25  1  0
 21 26  1  0
  5 27  2  0
 27 28  1  0
 28 29  1  0
 29 30  3  0
 30 31  1  0
 31 32  2  0
 32 33  1  0
 33 34  2  0
 34 35  1  0
 35 36  2  0
 36 37  1  0
 37 38  2  0
 38 39  1  0
 28  2  2  0
 39 31  1  0
 26  9  2  0
 39 34  1  0
 20 14  1  0
  1 40  1  0
  1 41  1  0
  1 42  1  0
  3 43  1  0
  4 44  1  0
  8 45  1  0
 10 46  1  0
 11 47  1  0
 13 48  1  0
 13 49  1  0
 15 50  1  0
 15 51  1  0
 16 52  1  0
 16 53  1  0
 18 54  1  0
 18 55  1  0
 18 56  1  0
 19 57  1  0
 19 58  1  0
 20 59  1  0
 20 60  1  0
 26 61  1  0
 27 62  1  0
 32 63  1  0
 35 64  1  0
 36 65  1  0
 37 66  1  0
M  END
>  <meeko>  (4) 
{"is_sidechain": false}

>  <vina_affinity_kcal_mol>  (4) 
-9.798

>  <pose_rank>  (4) 
4

$$$$

     RDKit          3D

 66 70  0  0  0  0  0  0  0  0999 V2000
   -9.1120   -3.8300   -8.3300 C   0  0  0  0  0  0  0  0  0  0  0  0
   -9.3790   -2.9140   -9.4940 C   0  0  0  0  0  0  0  0  0  0  0  0
   -8.3010   -2.4100  -10.2400 C   0  0  0  0  0  0  0  0  0  0  0  0
   -8.5200   -1.5620  -11.3280 C   0  0  0  0  0  0  0  0  0  0  0  0
   -9.8260   -1.2000  -11.6780 C   0  0  0  0  0  0  0  0  0  0  0  0
  -10.1050   -0.2980  -12.8310 C   0  0  0  0  0  0  0  0  0  0  0  0
  -10.3680   -0.8050  -13.9130 O   0  0  0  0  0  0  0  0  0  0  0  0
  -10.0710    1.0530  -12.5300 N   0  0  0  0  0  0  0  0  0  0  0  0
  -10.2590    2.1310  -13.4210 C   0  0  0  0  0  0  0  0  0  0  0  0
   -9.2450    2.6940  -14.1880 C   0  0  0  0  0  0  0  0  0  0  0  0
   -9.5170    3.7610  -15.0500 C   0  0  0  0  0  0  0  0  0  0  0  0
  -10.8110    4.2950  -15.1640 C   0  0  0  0  0  0  0  0  0  0  0  0
  -11.0420    5.4410  -16.1320 C   0  0  0  0  0  0  0  0  0  0  0  0
   -9.8790    5.6970  -16.9830 N   0  0  0  0  0  0  0  0  0  0  0  0
   -9.3280    7.0620  -16.8360 C   0  0  0  0  0  0  0  0  0  0  0  0
   -9.7040    8.0220  -17.9870 C   0  0  0  0  0  0  0  0  0  0  0  0
   -9.2390    7.5540  -19.3070 N   0  0  0  0  0  0  0  0  0  0  0  0
  -10.0250    8.1580  -20.3780 C   0  0  0  0  0  0  0  0  0  0  0  0
   -9.2280    6.0790  -19.3880 C   0  0  0  0  0  0  0  0  0  0  0  0
  -10.1900    5.3910  -18.3950 C   0  0  0  0  0  0  0  0  0  0  0  0
  -11.8450    3.7510  -14.3710 C   0  0  0  0  0  0  0  0  0  0  0  0
  -13.2710    4.2650  -14.4140 C   0  0  0  0  0  0  0  0  0  0  0  0
  -13.7070    4.8120  -13.2450 F   0  0  0  0  0  0  0  0  0  0  0  0
  -14.1660    3.2610  -14.6750 F   0  0  0  0  0  0  0  0  0  0  0  0
  -13.4880    5.1870  -15.3910 F   0  0  0  0  0  0  0  0  0  0  0  0
  -11.5490    2.6640  -13.5180 C   0  0  0  0  0  0  0  0  0  0  0  0
  -10.9080   -1.7120  -10.9560 C   0  0  0  0  0  0  0  0  0  0  0  0
  -10.6900   -2.5620   -9.8650 C   0  0  0  0  0  0  0  0  0  0  0  0
  -11.8250   -3.0580   -9.1450 C   0  0  0  0  0  0  0  0  0  0  0  0
  -12.7640   -3.4830   -8.5290 C   0  0  0  0  0  0  0  0  0  0  0  0
  -13.8680   -4.0050   -7.8070 C   0  0  0  0  0  0  0  0  0  0  0  0
  -14.8620   -3.3190   -7.1460 C   0  0  0  0  0  0  0  0  0  0  0  0
  -15.7610   -4.1780   -6.5610 N   0  0  0  0  0  0  0  0  0  0  0  0
  -15.3230   -5.3830   -6.8620 C   0  0  0  0  0  0  0  0  0  0  0  0
  -15.8330   -6.6600   -6.5380 C   0  0  0  0  0  0  0  0  0  0  0  0
  -15.1920   -7.7520   -6.9720 C   0  0  0  0  0  0  0  0  0  0  0  0
  -13.9660   -7.5420   -7.7780 C   0  0  0  0  0  0  0  0  0  0  0  0
  -13.4480   -6.4010   -8.1080 N   0  0  0  0  0  0  0  0  0  0  0  0
  -14.1630   -5.3350   -7.6250 N   0  0  0  0  0  0  0  0  0  0  0  0
   -9.2714   -3.2831   -7.3890 H   0  0  0  0  0  0  0  0  0  0  0  0
   -9.7970   -4.6895   -8.3751 H   0  0  0  0  0  0  0  0  0  0  0  0
   -8.0725   -4.1868   -8.3751 H   0  0  0  0  0  0  0  0  0  0  0  0
   -7.2726   -2.6863   -9.9643 H   0  0  0  0  0  0  0  0  0  0  0  0
   -7.6677   -1.1794  -11.9087 H   0  0  0  0  0  0  0  0  0  0  0  0
   -9.9680    1.3020  -11.5550 H   0  0  0  0  0  0  0  0  0  0  0  0
   -8.2216    2.2972  -14.1162 H   0  0  0  0  0  0  0  0  0  0  0  0
   -8.7016    4.1905  -15.6505 H   0  0  0  0  0  0  0  0  0  0  0  0
  -11.9010    5.1939  -16.7731 H   0  0  0  0  0  0  0  0  0  0  0  0
  -11.2289    6.3481  -15.5386 H   0  0  0  0  0  0  0  0  0  0  0  0
   -9.7055    7.4872  -15.8944 H   0  0  0  0  0  0  0  0  0  0  0  0
   -8.2324    6.9647  -16.8495 H   0  0  0  0  0  0  0  0  0  0  0  0
  -10.7991    8.1209  -18.0166 H   0  0  0  0  0  0  0  0  0  0  0  0
   -9.2086    8.9835  -17.7869 H   0  0  0  0  0  0  0  0  0  0  0  0
  -10.8260    8.7735  -19.9426 H   0  0  0  0  0  0  0  0  0  0  0  0
   -9.3735    8.7900  -20.9993 H   0  0  0  0  0  0  0  0  0  0  0  0
  -10.4680    7.3657  -20.9993 H   0  0  0  0  0  0  0  0  0  0  0  0
   -9.5157    5.7859  -20.4085 H   0  0  0  0  0  0  0  0  0  0  0  0
   -8.2109    5.7522  -19.1259 H   0  0  0  0  0  0  0  0  0  0  0  0
  -11.2149    5.7283  -18.6092 H   0  0  0  0  0  0  0  0  0  0  0  0
  -10.0787    4.3048  -18.5283 H   0  0  0  0  0  0  0  0  0  0  0  0
  -12.3557    2.2244  -12.9131 H   0  0  0  0  0  0  0  0  0  0  0  0
  -11.9351   -1.4459  -11.2463 H   0  0  0  0  0  0  0  0  0  0  0  0
  -14.9281   -2.2223   -7.0929 H   0  0  0  0  0  0  0  0  0  0  0  0
  -16.7479   -6.7560   -5.9350 H   0  0  0  0  0  0  0  0  0  0  0  0
  -15.5596   -8.7625   -6.7403 H   0  0  0  0  0  0  0  0  0  0  0  0
  -13.4443   -8.4438   -8.1309 H   0  0  0  0  0  0  0  0  0  0  0  0
  1  2  1  0
  2  3  1  0
  3  4  2  0
  4  5  1  0
  5  6  1  0
  6  7  2  0
  6  8  1  0
  8  9  1  0
  9 10  1  0
 10 11  2  0
 11 12  1  0
 12 13  1  0
 13 14  1  0
 14 15  1  0
 15 16  1  0
 16 17  1  0
 17 18  1  0
 17 19  1  0
 19 20  1  0
 12 21  2  0
 21 22  1  0
 22 23  1  0
 22 24  1  0
 22 25  1  0
 21 26  1  0
  5 27  2  0
 27 28  1  0
 28 29  1  0
 29 30  3  0
 30 31  1  0
 31 32  2  0
 32 33  1  0
 33 34  2  0
 34 35  1  0
 35 36  2  0
 36 37  1  0
 37 38  2  0
 38 39  1  0
 28  2  2  0
 39 31  1  0
 26  9  2  0
 39 34  1  0
 20 14  1  0
  1 40  1  0
  1 41  1  0
  1 42  1  0
  3 43  1  0
  4 44  1  0
  8 45  1  0
 10 46  1  0
 11 47  1  0
 13 48  1  0
 13 49  1  0
 15 50  1  0
 15 51  1  0
 16 52  1  0
 16 53  1  0
 18 54  1  0
 18 55  1  0
 18 56  1  0
 19 57  1  0
 19 58  1  0
 20 59  1  0
 20 60  1  0
 26 61  1  0
 27 62  1  0
 32 63  1  0
 35 64  1  0
 36 65  1  0
 37 66  1  0
M  END
>  <meeko>  (5) 
{"is_sidechain": false}

>  <vina_affinity_kcal_mol>  (5) 
-9.714

>  <pose_rank>  (5) 
5

$$$$

     RDKit          3D

 66 70  0  0  0  0  0  0  0  0999 V2000
  -10.3330   -3.8860   -7.7420 C   0  0  0  0  0  0  0  0  0  0  0  0
  -10.3850   -2.9880   -8.9490 C   0  0  0  0  0  0  0  0  0  0  0  0
   -9.2070   -2.7240   -9.6670 C   0  0  0  0  0  0  0  0  0  0  0  0
   -9.2270   -1.8980  -10.7930 C   0  0  0  0  0  0  0  0  0  0  0  0
  -10.4300   -1.3180  -11.2110 C   0  0  0  0  0  0  0  0  0  0  0  0
  -10.4960   -0.4310  -12.4070 C   0  0  0  0  0  0  0  0  0  0  0  0
  -10.3850   -0.9420  -13.5140 O   0  0  0  0  0  0  0  0  0  0  0  0
  -10.7200    0.9050  -12.1250 N   0  0  0  0  0  0  0  0  0  0  0  0
  -10.7930    1.9710  -13.0460 C   0  0  0  0  0  0  0  0  0  0  0  0
   -9.7190    2.4190  -13.8080 C   0  0  0  0  0  0  0  0  0  0  0  0
   -9.8790    3.4820  -14.7020 C   0  0  0  0  0  0  0  0  0  0  0  0
  -11.1160    4.1290  -14.8530 C   0  0  0  0  0  0  0  0  0  0  0  0
  -11.2250    5.2660  -15.8540 C   0  0  0  0  0  0  0  0  0  0  0  0
   -9.9630    5.5220  -16.5480 N   0  0  0  0  0  0  0  0  0  0  0  0
   -9.5940    6.9530  -16.5970 C   0  0  0  0  0  0  0  0  0  0  0  0
   -9.8590    7.6270  -17.9630 C   0  0  0  0  0  0  0  0  0  0  0  0
   -9.1190    6.9960  -19.0730 N   0  0  0  0  0  0  0  0  0  0  0  0
   -9.7600    7.2800  -20.3530 C   0  0  0  0  0  0  0  0  0  0  0  0
   -8.9370    5.5470  -18.8500 C   0  0  0  0  0  0  0  0  0  0  0  0
   -9.9820    4.9240  -17.9000 C   0  0  0  0  0  0  0  0  0  0  0  0
  -12.2090    3.7040  -14.0650 C   0  0  0  0  0  0  0  0  0  0  0  0
  -13.5800    4.3450  -14.1470 C   0  0  0  0  0  0  0  0  0  0  0  0
  -13.6570    5.5810  -13.5780 F   0  0  0  0  0  0  0  0  0  0  0  0
  -14.5270    3.6070  -13.4880 F   0  0  0  0  0  0  0  0  0  0  0  0
  -14.0520    4.4620  -15.4180 F   0  0  0  0  0  0  0  0  0  0  0  0
  -12.0270    2.6180  -13.1800 C   0  0  0  0  0  0  0  0  0  0  0  0
  -11.6130   -1.5910  -10.5180 C   0  0  0  0  0  0  0  0  0  0  0  0
  -11.5950   -2.4170   -9.3880 C   0  0  0  0  0  0  0  0  0  0  0  0
  -12.8260   -2.6650   -8.6990 C   0  0  0  0  0  0  0  0  0  0  0  0
  -13.8490   -2.8830   -8.1090 C   0  0  0  0  0  0  0  0  0  0  0  0
  -15.0620   -3.1200   -7.4130 C   0  0  0  0  0  0  0  0  0  0  0  0
  -15.5320   -4.3030   -6.8870 C   0  0  0  0  0  0  0  0  0  0  0  0
  -16.7540   -4.1320   -6.2830 N   0  0  0  0  0  0  0  0  0  0  0  0
  -17.0310   -2.8530   -6.4340 C   0  0  0  0  0  0  0  0  0  0  0  0
  -18.1490   -2.0950   -6.0210 C   0  0  0  0  0  0  0  0  0  0  0  0
  -18.1940   -0.7860   -6.3010 C   0  0  0  0  0  0  0  0  0  0  0  0
  -17.0450   -0.2130   -7.0420 C   0  0  0  0  0  0  0  0  0  0  0  0
  -15.9940   -0.8530   -7.4480 N   0  0  0  0  0  0  0  0  0  0  0  0
  -16.0260   -2.1850   -7.1210 N   0  0  0  0  0  0  0  0  0  0  0  0
  -10.3684   -3.2746   -6.8283 H   0  0  0  0  0  0  0  0  0  0  0  0
  -11.1929   -4.5717   -7.7579 H   0  0  0  0  0  0  0  0  0  0  0  0
   -9.3997   -4.4679   -7.7579 H   0  0  0  0  0  0  0  0  0  0  0  0
   -8.2579   -3.1729   -9.3387 H   0  0  0  0  0  0  0  0  0  0  0  0
   -8.2988   -1.7037  -11.3503 H   0  0  0  0  0  0  0  0  0  0  0  0
  -10.9200    1.1410  -11.1630 H   0  0  0  0  0  0  0  0  0  0  0  0
   -8.7371    1.9336  -13.7065 H   0  0  0  0  0  0  0  0  0  0  0  0
   -9.0185    3.8182  -15.2991 H   0  0  0  0  0  0  0  0  0  0  0  0
  -11.9918    5.0080  -16.5993 H   0  0  0  0  0  0  0  0  0  0  0  0
  -11.4926    6.1769  -15.2985 H   0  0  0  0  0  0  0  0  0  0  0  0
  -10.1753    7.4861  -15.8303 H   0  0  0  0  0  0  0  0  0  0  0  0
   -8.5094    7.0070  -16.4218 H   0  0  0  0  0  0  0  0  0  0  0  0
  -10.9355    7.5660  -18.1805 H   0  0  0  0  0  0  0  0  0  0  0  0
   -9.5125    8.6683  -17.8878 H   0  0  0  0  0  0  0  0  0  0  0  0
  -10.7527    7.7198  -20.1764 H   0  0  0  0  0  0  0  0  0  0  0  0
   -9.1414    7.9883  -20.9237 H   0  0  0  0  0  0  0  0  0  0  0  0
   -9.8691    6.3460  -20.9237 H   0  0  0  0  0  0  0  0  0  0  0  0
   -9.0042    5.0359  -19.8218 H   0  0  0  0  0  0  0  0  0  0  0  0
   -7.9546    5.4185  -18.3722 H   0  0  0  0  0  0  0  0  0  0  0  0
  -10.9820    5.0708  -18.3342 H   0  0  0  0  0  0  0  0  0  0  0  0
   -9.7338    3.8579  -17.7916 H   0  0  0  0  0  0  0  0  0  0  0  0
  -12.8800    2.2707  -12.5786 H   0  0  0  0  0  0  0  0  0  0  0  0
  -12.5623   -1.1548  -10.8622 H   0  0  0  0  0  0  0  0  0  0  0  0
  -14.9970   -5.2625   -6.9434 H   0  0  0  0  0  0  0  0  0  0  0  0
  -18.9745   -2.5749   -5.4749 H   0  0  0  0  0  0  0  0  0  0  0  0
  -19.0470   -0.1628   -5.9943 H   0  0  0  0  0  0  0  0  0  0  0  0
  -17.0890    0.8623   -7.2698 H   0  0  0  0  0  0  0  0  0  0  0  0
  1  2  1  0
  2  3  1  0
  3  4  2  0
  4  5  1  0
  5  6  1  0
  6  7  2  0
  6  8  1  0
  8  9  1  0
  9 10  1  0
 10 11  2  0
 11 12  1  0
 12 13  1  0
 13 14  1  0
 14 15  1  0
 15 16  1  0
 16 17  1  0
 17 18  1  0
 17 19  1  0
 19 20  1  0
 12 21  2  0
 21 22  1  0
 22 23  1  0
 22 24  1  0
 22 25  1  0
 21 26  1  0
  5 27  2  0
 27 28  1  0
 28 29  1  0
 29 30  3  0
 30 31  1  0
 31 32  2  0
 32 33  1  0
 33 34  2  0
 34 35  1  0
 35 36  2  0
 36 37  1  0
 37 38  2  0
 38 39  1  0
 28  2  2  0
 39 31  1  0
 26  9  2  0
 39 34  1  0
 20 14  1  0
  1 40  1  0
  1 41  1  0
  1 42  1  0
  3 43  1  0
  4 44  1  0
  8 45  1  0
 10 46  1  0
 11 47  1  0
 13 48  1  0
 13 49  1  0
 15 50  1  0
 15 51  1  0
 16 52  1  0
 16 53  1  0
 18 54  1  0
 18 55  1  0
 18 56  1  0
 19 57  1  0
 19 58  1  0
 20 59  1  0
 20 60  1  0
 26 61  1  0
 27 62  1  0
 32 63  1  0
 35 64  1  0
 36 65  1  0
 37 66  1  0
M  END
>  <meeko>  (6) 
{"is_sidechain": false}

>  <vina_affinity_kcal_mol>  (6) 
-9.576

>  <pose_rank>  (6) 
6

$$$$

     RDKit          3D

 66 70  0  0  0  0  0  0  0  0999 V2000
   -8.0450    2.1390  -17.0560 C   0  0  0  0  0  0  0  0  0  0  0  0
   -8.9220    1.8970  -15.8570 C   0  0  0  0  0  0  0  0  0  0  0  0
   -8.9380    0.6290  -15.2550 C   0  0  0  0  0  0  0  0  0  0  0  0
   -9.7410    0.3780  -14.1390 C   0  0  0  0  0  0  0  0  0  0  0  0
  -10.5450    1.3960  -13.6160 C   0  0  0  0  0  0  0  0  0  0  0  0
  -11.4150    1.1710  -12.4270 C   0  0  0  0  0  0  0  0  0  0  0  0
  -12.3860    1.9010  -12.2730 O   0  0  0  0  0  0  0  0  0  0  0  0
  -11.0390    0.1070  -11.6260 N   0  0  0  0  0  0  0  0  0  0  0  0
  -11.6470   -0.3160  -10.4260 C   0  0  0  0  0  0  0  0  0  0  0  0
  -11.5350    0.3590   -9.2150 C   0  0  0  0  0  0  0  0  0  0  0  0
  -12.1750   -0.1280   -8.0710 C   0  0  0  0  0  0  0  0  0  0  0  0
  -12.9400   -1.3050   -8.1070 C   0  0  0  0  0  0  0  0  0  0  0  0
  -13.6220   -1.7690   -6.8330 C   0  0  0  0  0  0  0  0  0  0  0  0
  -14.6830   -0.8570   -6.4030 N   0  0  0  0  0  0  0  0  0  0  0  0
  -15.4930   -1.3780   -5.2810 C   0  0  0  0  0  0  0  0  0  0  0  0
  -16.8750   -1.9270   -5.7000 C   0  0  0  0  0  0  0  0  0  0  0  0
  -17.7250   -0.9140   -6.3560 N   0  0  0  0  0  0  0  0  0  0  0  0
  -18.7480   -1.5500   -7.1800 C   0  0  0  0  0  0  0  0  0  0  0  0
  -16.9190    0.0590   -7.1210 C   0  0  0  0  0  0  0  0  0  0  0  0
  -15.5350   -0.4740   -7.5490 C   0  0  0  0  0  0  0  0  0  0  0  0
  -13.0400   -2.0160   -9.3240 C   0  0  0  0  0  0  0  0  0  0  0  0
  -13.8330   -3.3010   -9.4620 C   0  0  0  0  0  0  0  0  0  0  0  0
  -13.4630   -4.2840   -8.5940 F   0  0  0  0  0  0  0  0  0  0  0  0
  -13.6760   -3.8650  -10.7010 F   0  0  0  0  0  0  0  0  0  0  0  0
  -15.1750   -3.1300   -9.3240 F   0  0  0  0  0  0  0  0  0  0  0  0
  -12.3980   -1.4970  -10.4700 C   0  0  0  0  0  0  0  0  0  0  0  0
  -10.5220    2.6690  -14.1930 C   0  0  0  0  0  0  0  0  0  0  0  0
   -9.7200    2.9220  -15.3120 C   0  0  0  0  0  0  0  0  0  0  0  0
   -9.7310    4.2370  -15.8810 C   0  0  0  0  0  0  0  0  0  0  0  0
   -9.7280    5.3330  -16.3710 C   0  0  0  0  0  0  0  0  0  0  0  0
   -9.7230    6.6190  -16.9690 C   0  0  0  0  0  0  0  0  0  0  0  0
   -9.7130    7.8520  -16.3540 C   0  0  0  0  0  0  0  0  0  0  0  0
   -9.7130    8.8720  -17.2750 N   0  0  0  0  0  0  0  0  0  0  0  0
   -9.7210    8.2700  -18.4460 C   0  0  0  0  0  0  0  0  0  0  0  0
   -9.7240    8.7990  -19.7570 C   0  0  0  0  0  0  0  0  0  0  0  0
   -9.7330    7.9620  -20.8020 C   0  0  0  0  0  0  0  0  0  0  0  0
   -9.7390    6.5100  -20.5060 C   0  0  0  0  0  0  0  0  0  0  0  0
   -9.7370    5.9630  -19.3310 N   0  0  0  0  0  0  0  0  0  0  0  0
   -9.7280    6.8870  -18.3170 N   0  0  0  0  0  0  0  0  0  0  0  0
   -7.0349    2.4177  -16.7212 H   0  0  0  0  0  0  0  0  0  0  0  0
   -7.9906    1.2223  -17.6615 H   0  0  0  0  0  0  0  0  0  0  0  0
   -8.4685    2.9539  -17.6615 H   0  0  0  0  0  0  0  0  0  0  0  0
   -8.3114   -0.1762  -15.6663 H   0  0  0  0  0  0  0  0  0  0  0  0
   -9.7407   -0.6183  -13.6728 H   0  0  0  0  0  0  0  0  0  0  0  0
  -10.2870   -0.4770  -11.9670 H   0  0  0  0  0  0  0  0  0  0  0  0
  -10.9392    1.2818   -9.1568 H   0  0  0  0  0  0  0  0  0  0  0  0
  -12.0772    0.4222   -7.1235 H   0  0  0  0  0  0  0  0  0  0  0  0
  -14.0602   -2.7625   -7.0088 H   0  0  0  0  0  0  0  0  0  0  0  0
  -12.8625   -1.7979   -6.0379 H   0  0  0  0  0  0  0  0  0  0  0  0
  -14.9309   -2.1907   -4.7978 H   0  0  0  0  0  0  0  0  0  0  0  0
  -15.6808   -0.5301   -4.6059 H   0  0  0  0  0  0  0  0  0  0  0  0
  -16.7227   -2.7624   -6.3993 H   0  0  0  0  0  0  0  0  0  0  0  0
  -17.3929   -2.2466   -4.7837 H   0  0  0  0  0  0  0  0  0  0  0  0
  -19.5023   -2.0189   -6.5310 H   0  0  0  0  0  0  0  0  0  0  0  0
  -19.2306   -0.7925   -7.8150 H   0  0  0  0  0  0  0  0  0  0  0  0
  -18.2822   -2.3180   -7.8150 H   0  0  0  0  0  0  0  0  0  0  0  0
  -17.4785    0.3361   -8.0266 H   0  0  0  0  0  0  0  0  0  0  0  0
  -16.7390    0.9169   -6.4564 H   0  0  0  0  0  0  0  0  0  0  0  0
  -15.6819   -1.3578   -8.1872 H   0  0  0  0  0  0  0  0  0  0  0  0
  -15.0210    0.3383   -8.0838 H   0  0  0  0  0  0  0  0  0  0  0  0
  -12.4906   -2.0360  -11.4244 H   0  0  0  0  0  0  0  0  0  0  0  0
  -11.1366    3.4752  -13.7660 H   0  0  0  0  0  0  0  0  0  0  0  0
   -9.7059    8.0010  -15.2642 H   0  0  0  0  0  0  0  0  0  0  0  0
   -9.7190    9.8873  -19.9169 H   0  0  0  0  0  0  0  0  0  0  0  0
   -9.7358    8.3363  -21.8364 H   0  0  0  0  0  0  0  0  0  0  0  0
   -9.7458    5.8286  -21.3695 H   0  0  0  0  0  0  0  0  0  0  0  0
  1  2  1  0
  2  3  1  0
  3  4  2  0
  4  5  1  0
  5  6  1  0
  6  7  2  0
  6  8  1  0
  8  9  1  0
  9 10  1  0
 10 11  2  0
 11 12  1  0
 12 13  1  0
 13 14  1  0
 14 15  1  0
 15 16  1  0
 16 17  1  0
 17 18  1  0
 17 19  1  0
 19 20  1  0
 12 21  2  0
 21 22  1  0
 22 23  1  0
 22 24  1  0
 22 25  1  0
 21 26  1  0
  5 27  2  0
 27 28  1  0
 28 29  1  0
 29 30  3  0
 30 31  1  0
 31 32  2  0
 32 33  1  0
 33 34  2  0
 34 35  1  0
 35 36  2  0
 36 37  1  0
 37 38  2  0
 38 39  1  0
 28  2  2  0
 39 31  1  0
 26  9  2  0
 39 34  1  0
 20 14  1  0
  1 40  1  0
  1 41  1  0
  1 42  1  0
  3 43  1  0
  4 44  1  0
  8 45  1  0
 10 46  1  0
 11 47  1  0
 13 48  1  0
 13 49  1  0
 15 50  1  0
 15 51  1  0
 16 52  1  0
 16 53  1  0
 18 54  1  0
 18 55  1  0
 18 56  1  0
 19 57  1  0
 19 58  1  0
 20 59  1  0
 20 60  1  0
 26 61  1  0
 27 62  1  0
 32 63  1  0
 35 64  1  0
 36 65  1  0
 37 66  1  0
M  END
>  <meeko>  (7) 
{"is_sidechain": false}

>  <vina_affinity_kcal_mol>  (7) 
-9.5

>  <pose_rank>  (7) 
7

$$$$

     RDKit          3D

 66 70  0  0  0  0  0  0  0  0999 V2000
   -9.2800    5.4520  -17.2310 C   0  0  0  0  0  0  0  0  0  0  0  0
  -10.1850    4.8460  -16.1910 C   0  0  0  0  0  0  0  0  0  0  0  0
  -11.4120    5.4610  -15.8970 C   0  0  0  0  0  0  0  0  0  0  0  0
  -12.2720    4.9170  -14.9400 C   0  0  0  0  0  0  0  0  0  0  0  0
  -11.9080    3.7520  -14.2570 C   0  0  0  0  0  0  0  0  0  0  0  0
  -12.7950    3.1390  -13.2280 C   0  0  0  0  0  0  0  0  0  0  0  0
  -13.9700    3.4800  -13.1990 O   0  0  0  0  0  0  0  0  0  0  0  0
  -12.1810    2.1960  -12.4220 N   0  0  0  0  0  0  0  0  0  0  0  0
  -12.7580    1.4840  -11.3490 C   0  0  0  0  0  0  0  0  0  0  0  0
  -14.1190    1.4740  -11.0620 C   0  0  0  0  0  0  0  0  0  0  0  0
  -14.6100    0.7380   -9.9800 C   0  0  0  0  0  0  0  0  0  0  0  0
  -13.7500   -0.0040   -9.1520 C   0  0  0  0  0  0  0  0  0  0  0  0
  -14.3500   -0.7960   -8.0040 C   0  0  0  0  0  0  0  0  0  0  0  0
  -14.7320   -2.1520   -8.4000 N   0  0  0  0  0  0  0  0  0  0  0  0
  -14.4320   -3.1740   -7.3740 C   0  0  0  0  0  0  0  0  0  0  0  0
  -13.1750   -4.0210   -7.6740 C   0  0  0  0  0  0  0  0  0  0  0  0
  -13.2660   -4.7620   -8.9480 N   0  0  0  0  0  0  0  0  0  0  0  0
  -11.9370   -5.1020   -9.4470 C   0  0  0  0  0  0  0  0  0  0  0  0
  -14.0660   -4.0260   -9.9480 C   0  0  0  0  0  0  0  0  0  0  0  0
  -14.1280   -2.5030   -9.7020 C   0  0  0  0  0  0  0  0  0  0  0  0
  -12.3630    0.0190   -9.4150 C   0  0  0  0  0  0  0  0  0  0  0  0
  -11.3540   -0.7400   -8.5740 C   0  0  0  0  0  0  0  0  0  0  0  0
  -11.7760   -1.0200   -7.3090 F   0  0  0  0  0  0  0  0  0  0  0  0
  -10.2000   -0.0240   -8.3970 F   0  0  0  0  0  0  0  0  0  0  0  0
  -10.9540   -1.9140   -9.1310 F   0  0  0  0  0  0  0  0  0  0  0  0
  -11.8920    0.7580  -10.5230 C   0  0  0  0  0  0  0  0  0  0  0  0
  -10.6980    3.1180  -14.5560 C   0  0  0  0  0  0  0  0  0  0  0  0
   -9.8340    3.6620  -15.5140 C   0  0  0  0  0  0  0  0  0  0  0  0
   -8.5990    2.9890  -15.7850 C   0  0  0  0  0  0  0  0  0  0  0  0
   -7.5590    2.4380  -16.0250 C   0  0  0  0  0  0  0  0  0  0  0  0
   -6.3390    1.7700  -16.3030 C   0  0  0  0  0  0  0  0  0  0  0  0
   -5.1420    2.3070  -16.7190 C   0  0  0  0  0  0  0  0  0  0  0  0
   -4.1850    1.3340  -16.8840 N   0  0  0  0  0  0  0  0  0  0  0  0
   -4.7910    0.2080  -16.5690 C   0  0  0  0  0  0  0  0  0  0  0  0
   -4.3160   -1.1230  -16.5480 C   0  0  0  0  0  0  0  0  0  0  0  0
   -5.1440   -2.1100  -16.1850 C   0  0  0  0  0  0  0  0  0  0  0  0
   -6.5310   -1.7310  -15.8230 C   0  0  0  0  0  0  0  0  0  0  0  0
   -7.0260   -0.5340  -15.8220 N   0  0  0  0  0  0  0  0  0  0  0  0
   -6.1150    0.4170  -16.2050 N   0  0  0  0  0  0  0  0  0  0  0  0
   -8.4645    5.9980  -16.7342 H   0  0  0  0  0  0  0  0  0  0  0  0
   -8.8575    4.6540  -17.8593 H   0  0  0  0  0  0  0  0  0  0  0  0
   -9.8569    6.1466  -17.8593 H   0  0  0  0  0  0  0  0  0  0  0  0
  -11.6996    6.3815  -16.4261 H   0  0  0  0  0  0  0  0  0  0  0  0
  -13.2342    5.4042  -14.7239 H   0  0  0  0  0  0  0  0  0  0  0  0
  -11.2350    1.9340  -12.6640 H   0  0  0  0  0  0  0  0  0  0  0  0
  -14.8139    2.0495  -11.6912 H   0  0  0  0  0  0  0  0  0  0  0  0
  -15.6902    0.7395   -9.7724 H   0  0  0  0  0  0  0  0  0  0  0  0
  -13.6086   -0.8604   -7.1940 H   0  0  0  0  0  0  0  0  0  0  0  0
  -15.2610   -0.2735   -7.6767 H   0  0  0  0  0  0  0  0  0  0  0  0
  -14.2824   -2.6632   -6.4114 H   0  0  0  0  0  0  0  0  0  0  0  0
  -15.2853   -3.8680   -7.3594 H   0  0  0  0  0  0  0  0  0  0  0  0
  -12.3041   -3.3506   -7.7204 H   0  0  0  0  0  0  0  0  0  0  0  0
  -13.0805   -4.7641   -6.8685 H   0  0  0  0  0  0  0  0  0  0  0  0
  -11.2597   -5.2753   -8.5977 H   0  0  0  0  0  0  0  0  0  0  0  0
  -11.9975   -6.0136  -10.0596 H   0  0  0  0  0  0  0  0  0  0  0  0
  -11.5523   -4.2733  -10.0596 H   0  0  0  0  0  0  0  0  0  0  0  0
  -13.6239   -4.1988  -10.9403 H   0  0  0  0  0  0  0  0  0  0  0  0
  -15.0964   -4.4036   -9.8730 H   0  0  0  0  0  0  0  0  0  0  0  0
  -13.1045   -2.1010   -9.7332 H   0  0  0  0  0  0  0  0  0  0  0  0
  -14.7642   -2.0688  -10.4873 H   0  0  0  0  0  0  0  0  0  0  0  0
  -10.8142    0.7631  -10.7429 H   0  0  0  0  0  0  0  0  0  0  0  0
  -10.4239    2.1880  -14.0364 H   0  0  0  0  0  0  0  0  0  0  0  0
   -4.9725    3.3792  -16.8970 H   0  0  0  0  0  0  0  0  0  0  0  0
   -3.2756   -1.3457  -16.8274 H   0  0  0  0  0  0  0  0  0  0  0  0
   -4.8098   -3.1576  -16.1565 H   0  0  0  0  0  0  0  0  0  0  0  0
   -7.2063   -2.5469  -15.5260 H   0  0  0  0  0  0  0  0  0  0  0  0
  1  2  1  0
  2  3  1  0
  3  4  2  0
  4  5  1  0
  5  6  1  0
  6  7  2  0
  6  8  1  0
  8  9  1  0
  9 10  1  0
 10 11  2  0
 11 12  1  0
 12 13  1  0
 13 14  1  0
 14 15  1  0
 15 16  1  0
 16 17  1  0
 17 18  1  0
 17 19  1  0
 19 20  1  0
 12 21  2  0
 21 22  1  0
 22 23  1  0
 22 24  1  0
 22 25  1  0
 21 26  1  0
  5 27  2  0
 27 28  1  0
 28 29  1  0
 29 30  3  0
 30 31  1  0
 31 32  2  0
 32 33  1  0
 33 34  2  0
 34 35  1  0
 35 36  2  0
 36 37  1  0
 37 38  2  0
 38 39  1  0
 28  2  2  0
 39 31  1  0
 26  9  2  0
 39 34  1  0
 20 14  1  0
  1 40  1  0
  1 41  1  0
  1 42  1  0
  3 43  1  0
  4 44  1  0
  8 45  1  0
 10 46  1  0
 11 47  1  0
 13 48  1  0
 13 49  1  0
 15 50  1  0
 15 51  1  0
 16 52  1  0
 16 53  1  0
 18 54  1  0
 18 55  1  0
 18 56  1  0
 19 57  1  0
 19 58  1  0
 20 59  1  0
 20 60  1  0
 26 61  1  0
 27 62  1  0
 32 63  1  0
 35 64  1  0
 36 65  1  0
 37 66  1  0
M  END
>  <meeko>  (8) 
{"is_sidechain": false}

>  <vina_affinity_kcal_mol>  (8) 
-9.469

>  <pose_rank>  (8) 
8

$$$$

     RDKit          3D

 66 70  0  0  0  0  0  0  0  0999 V2000
  -10.2080    4.9300  -16.4210 C   0  0  0  0  0  0  0  0  0  0  0  0
  -10.8190    4.1390  -15.2950 C   0  0  0  0  0  0  0  0  0  0  0  0
  -11.9480    4.6420  -14.6290 C   0  0  0  0  0  0  0  0  0  0  0  0
  -12.5370    3.9260  -13.5830 C   0  0  0  0  0  0  0  0  0  0  0  0
  -11.9970    2.6980  -13.1870 C   0  0  0  0  0  0  0  0  0  0  0  0
  -12.5940    1.9020  -12.0780 C   0  0  0  0  0  0  0  0  0  0  0  0
  -13.7440    2.1500  -11.7410 O   0  0  0  0  0  0  0  0  0  0  0  0
  -11.7690    0.9180  -11.5620 N   0  0  0  0  0  0  0  0  0  0  0  0
  -12.0500    0.0420  -10.4920 C   0  0  0  0  0  0  0  0  0  0  0  0
  -11.6560   -1.2910  -10.4510 C   0  0  0  0  0  0  0  0  0  0  0  0
  -11.9740   -2.0910   -9.3490 C   0  0  0  0  0  0  0  0  0  0  0  0
  -12.6990   -1.5780   -8.2600 C   0  0  0  0  0  0  0  0  0  0  0  0
  -12.9960   -2.4960   -7.0880 C   0  0  0  0  0  0  0  0  0  0  0  0
  -13.8690   -3.6100   -7.4580 N   0  0  0  0  0  0  0  0  0  0  0  0
  -15.2090   -3.1840   -7.9200 C   0  0  0  0  0  0  0  0  0  0  0  0
  -16.3270   -3.3630   -6.8680 C   0  0  0  0  0  0  0  0  0  0  0  0
  -16.4920   -4.7640   -6.4310 N   0  0  0  0  0  0  0  0  0  0  0  0
  -17.1380   -4.8270   -5.1250 C   0  0  0  0  0  0  0  0  0  0  0  0
  -15.2090   -5.4950   -6.4560 C   0  0  0  0  0  0  0  0  0  0  0  0
  -13.9670   -4.5850   -6.3500 C   0  0  0  0  0  0  0  0  0  0  0  0
  -13.1300   -0.2340   -8.3010 C   0  0  0  0  0  0  0  0  0  0  0  0
  -13.9280    0.4070   -7.1810 C   0  0  0  0  0  0  0  0  0  0  0  0
  -14.5090    1.5940   -7.5140 F   0  0  0  0  0  0  0  0  0  0  0  0
  -13.1390    0.7050   -6.1020 F   0  0  0  0  0  0  0  0  0  0  0  0
  -14.9100   -0.3930   -6.6860 F   0  0  0  0  0  0  0  0  0  0  0  0
  -12.7850    0.5590   -9.4180 C   0  0  0  0  0  0  0  0  0  0  0  0
  -10.8860    2.1770  -13.8570 C   0  0  0  0  0  0  0  0  0  0  0  0
  -10.2930    2.8930  -14.9040 C   0  0  0  0  0  0  0  0  0  0  0  0
   -9.1500    2.3300  -15.5590 C   0  0  0  0  0  0  0  0  0  0  0  0
   -8.1920    1.8730  -16.1200 C   0  0  0  0  0  0  0  0  0  0  0  0
   -7.0600    1.3180  -16.7700 C   0  0  0  0  0  0  0  0  0  0  0  0
   -6.2890    1.8670  -17.7700 C   0  0  0  0  0  0  0  0  0  0  0  0
   -5.2740    1.0190  -18.1440 N   0  0  0  0  0  0  0  0  0  0  0  0
   -5.4200   -0.0430  -17.3780 C   0  0  0  0  0  0  0  0  0  0  0  0
   -4.6740   -1.2410  -17.3070 C   0  0  0  0  0  0  0  0  0  0  0  0
   -5.0310   -2.1850  -16.4270 C   0  0  0  0  0  0  0  0  0  0  0  0
   -6.2100   -1.9020  -15.5730 C   0  0  0  0  0  0  0  0  0  0  0  0
   -6.9330   -0.8280  -15.5900 N   0  0  0  0  0  0  0  0  0  0  0  0
   -6.5010    0.0870  -16.5160 N   0  0  0  0  0  0  0  0  0  0  0  0
   -9.5851    5.7364  -16.0067 H   0  0  0  0  0  0  0  0  0  0  0  0
   -9.5855    4.2667  -17.0395 H   0  0  0  0  0  0  0  0  0  0  0  0
  -11.0071    5.3648  -17.0395 H   0  0  0  0  0  0  0  0  0  0  0  0
  -12.3734    5.6096  -14.9335 H   0  0  0  0  0  0  0  0  0  0  0  0
  -13.4242    4.3278  -13.0718 H   0  0  0  0  0  0  0  0  0  0  0  0
  -10.8940    0.7570  -12.0420 H   0  0  0  0  0  0  0  0  0  0  0  0
  -11.0901   -1.7192  -11.2915 H   0  0  0  0  0  0  0  0  0  0  0  0
  -11.6504   -3.1422   -9.3343 H   0  0  0  0  0  0  0  0  0  0  0  0
  -12.0469   -2.9023   -6.7084 H   0  0  0  0  0  0  0  0  0  0  0  0
  -13.5165   -1.9029   -6.3216 H   0  0  0  0  0  0  0  0  0  0  0  0
  -15.1581   -2.1193   -8.1919 H   0  0  0  0  0  0  0  0  0  0  0  0
  -15.4699   -3.8288   -8.7722 H   0  0  0  0  0  0  0  0  0  0  0  0
  -16.0823   -2.7486   -5.9890 H   0  0  0  0  0  0  0  0  0  0  0  0
  -17.2720   -3.0523   -7.3374 H   0  0  0  0  0  0  0  0  0  0  0  0
  -16.3761   -4.7527   -4.3351 H   0  0  0  0  0  0  0  0  0  0  0  0
  -17.8498   -3.9940   -5.0274 H   0  0  0  0  0  0  0  0  0  0  0  0
  -17.6754   -5.7818   -5.0274 H   0  0  0  0  0  0  0  0  0  0  0  0
  -15.1953   -6.1991   -5.6109 H   0  0  0  0  0  0  0  0  0  0  0  0
  -15.1502   -6.0023   -7.4303 H   0  0  0  0  0  0  0  0  0  0  0  0
  -14.0173   -4.0324   -5.4002 H   0  0  0  0  0  0  0  0  0  0  0  0
  -13.0792   -5.2324   -6.4017 H   0  0  0  0  0  0  0  0  0  0  0  0
  -13.1025    1.6118   -9.4449 H   0  0  0  0  0  0  0  0  0  0  0  0
  -10.4760    1.2003  -13.5603 H   0  0  0  0  0  0  0  0  0  0  0  0
   -6.4633    2.8585  -18.2134 H   0  0  0  0  0  0  0  0  0  0  0  0
   -3.8086   -1.3965  -17.9680 H   0  0  0  0  0  0  0  0  0  0  0  0
   -4.4739   -3.1296  -16.3412 H   0  0  0  0  0  0  0  0  0  0  0  0
   -6.4990   -2.6822  -14.8535 H   0  0  0  0  0  0  0  0  0  0  0  0
  1  2  1  0
  2  3  1  0
  3  4  2  0
  4  5  1  0
  5  6  1  0
  6  7  2  0
  6  8  1  0
  8  9  1  0
  9 10  1  0
 10 11  2  0
 11 12  1  0
 12 13  1  0
 13 14  1  0
 14 15  1  0
 15 16  1  0
 16 17  1  0
 17 18  1  0
 17 19  1  0
 19 20  1  0
 12 21  2  0
 21 22  1  0
 22 23  1  0
 22 24  1  0
 22 25  1  0
 21 26  1  0
  5 27  2  0
 27 28  1  0
 28 29  1  0
 29 30  3  0
 30 31  1  0
 31 32  2  0
 32 33  1  0
 33 34  2  0
 34 35  1  0
 35 36  2  0
 36 37  1  0
 37 38  2  0
 38 39  1  0
 28  2  2  0
 39 31  1  0
 26  9  2  0
 39 34  1  0
 20 14  1  0
  1 40  1  0
  1 41  1  0
  1 42  1  0
  3 43  1  0
  4 44  1  0
  8 45  1  0
 10 46  1  0
 11 47  1  0
 13 48  1  0
 13 49  1  0
 15 50  1  0
 15 51  1  0
 16 52  1  0
 16 53  1  0
 18 54  1  0
 18 55  1  0
 18 56  1  0
 19 57  1  0
 19 58  1  0
 20 59  1  0
 20 60  1  0
 26 61  1  0
 27 62  1  0
 32 63  1  0
 35 64  1  0
 36 65  1  0
 37 66  1  0
M  END
>  <meeko>  (9) 
{"is_sidechain": false}

>  <vina_affinity_kcal_mol>  (9) 
-9.412

>  <pose_rank>  (9) 
9

$$$$

     RDKit          3D

 66 70  0  0  0  0  0  0  0  0999 V2000
   -9.8880    4.8960  -16.3770 C   0  0  0  0  0  0  0  0  0  0  0  0
  -10.5110    4.1020  -15.2600 C   0  0  0  0  0  0  0  0  0  0  0  0
  -11.7280    4.5250  -14.7040 C   0  0  0  0  0  0  0  0  0  0  0  0
  -12.3290    3.8050  -13.6690 C   0  0  0  0  0  0  0  0  0  0  0  0
  -11.7120    2.6520  -13.1720 C   0  0  0  0  0  0  0  0  0  0  0  0
  -12.3190    1.8540  -12.0690 C   0  0  0  0  0  0  0  0  0  0  0  0
  -13.4520    2.1390  -11.7030 O   0  0  0  0  0  0  0  0  0  0  0  0
  -11.5240    0.8250  -11.5940 N   0  0  0  0  0  0  0  0  0  0  0  0
  -11.8200   -0.0650  -10.5400 C   0  0  0  0  0  0  0  0  0  0  0  0
  -11.9230    0.3140   -9.2050 C   0  0  0  0  0  0  0  0  0  0  0  0
  -12.2230   -0.6320   -8.2210 C   0  0  0  0  0  0  0  0  0  0  0  0
  -12.4230   -1.9840   -8.5450 C   0  0  0  0  0  0  0  0  0  0  0  0
  -12.7620   -2.9570   -7.4300 C   0  0  0  0  0  0  0  0  0  0  0  0
  -13.9950   -2.5950   -6.7300 N   0  0  0  0  0  0  0  0  0  0  0  0
  -14.0190   -3.0240   -5.3150 C   0  0  0  0  0  0  0  0  0  0  0  0
  -14.8760   -4.2830   -5.0500 C   0  0  0  0  0  0  0  0  0  0  0  0
  -16.2920   -4.1090   -5.4280 N   0  0  0  0  0  0  0  0  0  0  0  0
  -16.9280   -5.4010   -5.6650 C   0  0  0  0  0  0  0  0  0  0  0  0
  -16.4390   -3.1960   -6.5800 C   0  0  0  0  0  0  0  0  0  0  0  0
  -15.1770   -3.0960   -7.4640 C   0  0  0  0  0  0  0  0  0  0  0  0
  -12.2930   -2.3890   -9.8920 C   0  0  0  0  0  0  0  0  0  0  0  0
  -12.4780   -3.8260  -10.3410 C   0  0  0  0  0  0  0  0  0  0  0  0
  -11.5840   -4.7010   -9.8030 F   0  0  0  0  0  0  0  0  0  0  0  0
  -12.3150   -3.9610  -11.6940 F   0  0  0  0  0  0  0  0  0  0  0  0
  -13.7210   -4.3180  -10.0880 F   0  0  0  0  0  0  0  0  0  0  0  0
  -12.0050   -1.4120  -10.8710 C   0  0  0  0  0  0  0  0  0  0  0  0
  -10.5100    2.2080  -13.7320 C   0  0  0  0  0  0  0  0  0  0  0  0
   -9.9060    2.9290  -14.7680 C   0  0  0  0  0  0  0  0  0  0  0  0
   -8.6700    2.4470  -15.3090 C   0  0  0  0  0  0  0  0  0  0  0  0
   -7.6330    2.0590  -15.7740 C   0  0  0  0  0  0  0  0  0  0  0  0
   -6.4130    1.5810  -16.3160 C   0  0  0  0  0  0  0  0  0  0  0  0
   -5.4100    2.2940  -16.9340 C   0  0  0  0  0  0  0  0  0  0  0  0
   -4.3810    1.4740  -17.3290 N   0  0  0  0  0  0  0  0  0  0  0  0
   -4.7480    0.2660  -16.9550 C   0  0  0  0  0  0  0  0  0  0  0  0
   -4.0980   -0.9820  -17.0910 C   0  0  0  0  0  0  0  0  0  0  0  0
   -4.6900   -2.0850  -16.6180 C   0  0  0  0  0  0  0  0  0  0  0  0
   -6.0150   -1.9190  -15.9740 C   0  0  0  0  0  0  0  0  0  0  0  0
   -6.6620   -0.8070  -15.8190 N   0  0  0  0  0  0  0  0  0  0  0  0
   -5.9880    0.2730  -16.3290 N   0  0  0  0  0  0  0  0  0  0  0  0
   -9.2612    5.6948  -15.9538 H   0  0  0  0  0  0  0  0  0  0  0  0
   -9.2672    4.2323  -16.9967 H   0  0  0  0  0  0  0  0  0  0  0  0
  -10.6804    5.3411  -16.9967 H   0  0  0  0  0  0  0  0  0  0  0  0
  -12.2142    5.4340  -15.0877 H   0  0  0  0  0  0  0  0  0  0  0  0
  -13.2859    4.1440  -13.2454 H   0  0  0  0  0  0  0  0  0  0  0  0
  -10.6660    0.6420  -12.0960 H   0  0  0  0  0  0  0  0  0  0  0  0
  -11.7672    1.3656   -8.9222 H   0  0  0  0  0  0  0  0  0  0  0  0
  -12.3041   -0.3114   -7.1719 H   0  0  0  0  0  0  0  0  0  0  0  0
  -12.8828   -3.9613   -7.8621 H   0  0  0  0  0  0  0  0  0  0  0  0
  -11.9405   -2.9291   -6.6990 H   0  0  0  0  0  0  0  0  0  0  0  0
  -12.9864   -3.2371   -5.0014 H   0  0  0  0  0  0  0  0  0  0  0  0
  -14.4768   -2.2034   -4.7432 H   0  0  0  0  0  0  0  0  0  0  0  0
  -14.4588   -5.1191   -5.6304 H   0  0  0  0  0  0  0  0  0  0  0  0
  -14.8468   -4.4781   -3.9678 H   0  0  0  0  0  0  0  0  0  0  0  0
  -17.1622   -5.8767   -4.7012 H   0  0  0  0  0  0  0  0  0  0  0  0
  -17.8564   -5.2534   -6.2362 H   0  0  0  0  0  0  0  0  0  0  0  0
  -16.2448   -6.0467   -6.2362 H   0  0  0  0  0  0  0  0  0  0  0  0
  -17.2708   -3.5560   -7.2033 H   0  0  0  0  0  0  0  0  0  0  0  0
  -16.6222   -2.1918   -6.1702 H   0  0  0  0  0  0  0  0  0  0  0  0
  -14.9460   -4.0961   -7.8594 H   0  0  0  0  0  0  0  0  0  0  0  0
  -15.3944   -2.3767   -8.2673 H   0  0  0  0  0  0  0  0  0  0  0  0
  -11.9238   -1.7191  -11.9241 H   0  0  0  0  0  0  0  0  0  0  0  0
  -10.0375    1.2883  -13.3566 H   0  0  0  0  0  0  0  0  0  0  0  0
   -5.4302    3.3825  -17.0915 H   0  0  0  0  0  0  0  0  0  0  0  0
   -3.1152   -1.0458  -17.5809 H   0  0  0  0  0  0  0  0  0  0  0  0
   -4.2137   -3.0729  -16.7034 H   0  0  0  0  0  0  0  0  0  0  0  0
   -6.4967   -2.8302  -15.5896 H   0  0  0  0  0  0  0  0  0  0  0  0
  1  2  1  0
  2  3  1  0
  3  4  2  0
  4  5  1  0
  5  6  1  0
  6  7  2  0
  6  8  1  0
  8  9  1  0
  9 10  1  0
 10 11  2  0
 11 12  1  0
 12 13  1  0
 13 14  1  0
 14 15  1  0
 15 16  1  0
 16 17  1  0
 17 18  1  0
 17 19  1  0
 19 20  1  0
 12 21  2  0
 21 22  1  0
 22 23  1  0
 22 24  1  0
 22 25  1  0
 21 26  1  0
  5 27  2  0
 27 28  1  0
 28 29  1  0
 29 30  3  0
 30 31  1  0
 31 32  2  0
 32 33  1  0
 33 34  2  0
 34 35  1  0
 35 36  2  0
 36 37  1  0
 37 38  2  0
 38 39  1  0
 28  2  2  0
 39 31  1  0
 26  9  2  0
 39 34  1  0
 20 14  1  0
  1 40  1  0
  1 41  1  0
  1 42  1  0
  3 43  1  0
  4 44  1  0
  8 45  1  0
 10 46  1  0
 11 47  1  0
 13 48  1  0
 13 49  1  0
 15 50  1  0
 15 51  1  0
 16 52  1  0
 16 53  1  0
 18 54  1  0
 18 55  1  0
 18 56  1  0
 19 57  1  0
 19 58  1  0
 20 59  1  0
 20 60  1  0
 26 61  1  0
 27 62  1  0
 32 63  1  0
 35 64  1  0
 36 65  1  0
 37 66  1  0
M  END
>  <meeko>  (10) 
{"is_sidechain": false}

>  <vina_affinity_kcal_mol>  (10) 
-9.39

>  <pose_rank>  (10) 
10

$$$$
