
     RDKit          3D

 73 77  0  0  0  0  0  0  0  0999 V2000
  -11.1398    2.4103    0.8071 C   0  0  0  0  0  0  0  0  0  0  0  0
   -9.8203    1.9242    0.5551 O   0  0  0  0  0  0  0  0  0  0  0  0
   -9.1319    2.6500   -0.3597 C   0  0  0  0  0  0  0  0  0  0  0  0
   -9.5442    3.6368   -0.9486 O   0  0  0  0  0  0  0  0  0  0  0  0
   -7.7713    2.0839   -0.5677 C   0  0  0  0  0  0  0  0  0  0  0  0
   -7.3151    0.9417    0.1256 C   0  0  0  0  0  0  0  0  0  0  0  0
   -6.0263    0.4285   -0.0898 C   0  0  0  0  0  0  0  0  0  0  0  0
   -5.1992    1.0637   -1.0001 C   0  0  0  0  0  0  0  0  0  0  0  0
   -5.6694    2.1957   -1.6792 C   0  0  0  0  0  0  0  0  0  0  0  0
   -6.9319    2.7238   -1.4884 C   0  0  0  0  0  0  0  0  0  0  0  0
   -4.7008    2.6915   -2.5440 N   0  0  0  0  0  0  0  0  0  0  0  0
   -3.5458    1.9359   -2.4893 C   0  0  0  0  0  0  0  0  0  0  0  0
   -2.5133    2.1271   -3.1062 O   0  0  0  0  0  0  0  0  0  0  0  0
   -3.8253    0.8373   -1.4896 C   0  0  0  0  0  0  0  0  0  0  0  0
   -2.8782   -0.0879   -1.2065 C   0  0  0  0  0  0  0  0  0  0  0  0
   -1.6250   -0.1374   -1.8356 N   0  0  0  0  0  0  0  0  0  0  0  0
   -0.4121   -0.5128   -1.2162 C   0  0  0  0  0  0  0  0  0  0  0  0
   -0.1488   -1.8261   -0.8339 C   0  0  0  0  0  0  0  0  0  0  0  0
    1.0433   -2.1604   -0.1753 C   0  0  0  0  0  0  0  0  0  0  0  0
    2.0149   -1.1914    0.1272 C   0  0  0  0  0  0  0  0  0  0  0  0
    3.2303   -1.5540    0.8217 N   0  0  0  0  0  0  0  0  0  0  0  0
    3.2017   -2.7998    1.5927 C   0  0  0  0  0  0  0  0  0  0  0  0
    4.4229   -0.8019    0.6828 C   0  0  0  0  0  0  0  0  0  0  0  0
    4.5109    0.2308    0.0147 O   0  0  0  0  0  0  0  0  0  0  0  0
    5.6617   -1.3657    1.4252 C   0  0  0  0  0  0  0  0  0  0  0  0
    6.9577   -0.7520    1.0813 N   0  0  0  0  0  0  0  0  0  0  0  0
    7.0747    0.6693    1.4526 C   0  0  0  0  0  0  0  0  0  0  0  0
    7.5367    1.6096    0.3114 C   0  0  0  0  0  0  0  0  0  0  0  0
    8.7182    1.1528   -0.4455 N   0  0  0  0  0  0  0  0  0  0  0  0
    9.9617    1.6338    0.1481 C   0  0  0  0  0  0  0  0  0  0  0  0
    8.7380   -0.3182   -0.5876 C   0  0  0  0  0  0  0  0  0  0  0  0
    7.3833   -1.0063   -0.3025 C   0  0  0  0  0  0  0  0  0  0  0  0
    1.7340    0.1264   -0.2540 C   0  0  0  0  0  0  0  0  0  0  0  0
    0.5412    0.4611   -0.9128 C   0  0  0  0  0  0  0  0  0  0  0  0
   -3.1816   -1.1391   -0.2120 C   0  0  0  0  0  0  0  0  0  0  0  0
   -2.9038   -0.9350    1.1473 C   0  0  0  0  0  0  0  0  0  0  0  0
   -3.2008   -1.9280    2.0823 C   0  0  0  0  0  0  0  0  0  0  0  0
   -3.7767   -3.1284    1.6664 C   0  0  0  0  0  0  0  0  0  0  0  0
   -4.0532   -3.3413    0.3159 C   0  0  0  0  0  0  0  0  0  0  0  0
   -3.7564   -2.3509   -0.6220 C   0  0  0  0  0  0  0  0  0  0  0  0
  -11.7422    2.3753   -0.1061 H   0  0  0  0  0  0  0  0  0  0  0  0
  -11.6037    1.7591    1.5530 H   0  0  0  0  0  0  0  0  0  0  0  0
  -11.1032    3.4274    1.2098 H   0  0  0  0  0  0  0  0  0  0  0  0
   -7.9591    0.4365    0.8432 H   0  0  0  0  0  0  0  0  0  0  0  0
   -5.7124   -0.4506    0.4612 H   0  0  0  0  0  0  0  0  0  0  0  0
   -7.2623    3.6033   -2.0321 H   0  0  0  0  0  0  0  0  0  0  0  0
   -4.7941    3.5033   -3.1360 H   0  0  0  0  0  0  0  0  0  0  0  0
   -1.4822    0.6893   -2.4299 H   0  0  0  0  0  0  0  0  0  0  0  0
   -0.8613   -2.6127   -1.0653 H   0  0  0  0  0  0  0  0  0  0  0  0
    1.1929   -3.2100    0.0582 H   0  0  0  0  0  0  0  0  0  0  0  0
    3.4616   -3.6320    0.9315 H   0  0  0  0  0  0  0  0  0  0  0  0
    2.2166   -2.9580    2.0435 H   0  0  0  0  0  0  0  0  0  0  0  0
    3.9077   -2.7749    2.4251 H   0  0  0  0  0  0  0  0  0  0  0  0
    5.7448   -2.4385    1.2188 H   0  0  0  0  0  0  0  0  0  0  0  0
    5.4960   -1.2420    2.5019 H   0  0  0  0  0  0  0  0  0  0  0  0
    7.8118    0.7263    2.2633 H   0  0  0  0  0  0  0  0  0  0  0  0
    6.1423    1.0640    1.8740 H   0  0  0  0  0  0  0  0  0  0  0  0
    7.6934    2.6202    0.7092 H   0  0  0  0  0  0  0  0  0  0  0  0
    6.7131    1.7123   -0.4069 H   0  0  0  0  0  0  0  0  0  0  0  0
   10.0996    1.2747    1.1742 H   0  0  0  0  0  0  0  0  0  0  0  0
   10.8221    1.3125   -0.4496 H   0  0  0  0  0  0  0  0  0  0  0  0
    9.9831    2.7291    0.1616 H   0  0  0  0  0  0  0  0  0  0  0  0
    9.4836   -0.7668    0.0840 H   0  0  0  0  0  0  0  0  0  0  0  0
    9.0541   -0.5594   -1.6092 H   0  0  0  0  0  0  0  0  0  0  0  0
    7.5082   -2.0857   -0.4501 H   0  0  0  0  0  0  0  0  0  0  0  0
    6.6424   -0.6655   -1.0351 H   0  0  0  0  0  0  0  0  0  0  0  0
    2.4102    0.9437   -0.0224 H   0  0  0  0  0  0  0  0  0  0  0  0
    0.3635    1.5015   -1.1756 H   0  0  0  0  0  0  0  0  0  0  0  0
   -2.4432   -0.0062    1.4763 H   0  0  0  0  0  0  0  0  0  0  0  0
   -2.9770   -1.7662    3.1335 H   0  0  0  0  0  0  0  0  0  0  0  0
   -4.0045   -3.9020    2.3954 H   0  0  0  0  0  0  0  0  0  0  0  0
   -4.4955   -4.2798   -0.0081 H   0  0  0  0  0  0  0  0  0  0  0  0
   -3.9662   -2.5257   -1.6749 H   0  0  0  0  0  0  0  0  0  0  0  0
  1  2  1  0
  2  3  1  0
  3  4  2  0
  3  5  1  0
  5  6  1  0
  6  7  2  0
  7  8  1  0
  8  9  2  0
  9 10  1  0
  9 11  1  0
 11 12  1  0
 12 13  2  0
 12 14  1  0
 14 15  2  0
 15 16  1  0
 16 17  1  0
 17 18  1  0
 18 19  2  0
 19 20  1  0
 20 21  1  0
 21 22  1  0
 21 23  1  0
 23 24  2  0
 23 25  1  0
 25 26  1  0
 26 27  1  0
 27 28  1  0
 28 29  1  0
 29 30  1  0
 29 31  1  0
 31 32  1  0
 20 33  2  0
 33 34  1  0
 15 35  1  0
 35 36  2  0
 36 37  1  0
 37 38  2  0
 38 39  1  0
 39 40  2  0
 10  5  2  0
 34 17  2  0
 40 35  1  0
 14  8  1  0
 32 26  1  0
  1 41  1  0
  1 42  1  0
  1 43  1  0
  6 44  1  0
  7 45  1  0
 10 46  1  0
 11 47  1  0
 16 48  1  0
 18 49  1  0
 19 50  1  0
 22 51  1  0
 22 52  1  0
 22 53  1  0
 25 54  1  0
 25 55  1  0
 27 56  1  0
 27 57  1  0
 28 58  1  0
 28 59  1  0
 30 60  1  0
 30 61  1  0
 30 62  1  0
 31 63  1  0
 31 64  1  0
 32 65  1  0
 32 66  1  0
 33 67  1  0
 34 68  1  0
 36 69  1  0
 37 70  1  0
 38 71  1  0
 39 72  1  0
 40 73  1  0
M  END
$$$$
