
     RDKit          3D

 73 77  0  0  0  0  0  0  0  0999 V2000
  -10.3230    7.1450  -21.8670 C   0  0  0  0  0  0  0  0  0  0  0  0
   -9.3130    6.7220  -20.9480 O   0  0  0  0  0  0  0  0  0  0  0  0
   -9.3000    7.4200  -19.7860 C   0  0  0  0  0  0  0  0  0  0  0  0
   -9.0920    8.6170  -19.6700 O   0  0  0  0  0  0  0  0  0  0  0  0
   -9.5810    6.5250  -18.6300 C   0  0  0  0  0  0  0  0  0  0  0  0
   -8.6420    5.5800  -18.1630 C   0  0  0  0  0  0  0  0  0  0  0  0
   -8.9320    4.7480  -17.0690 C   0  0  0  0  0  0  0  0  0  0  0  0
  -10.1640    4.8670  -16.4490 C   0  0  0  0  0  0  0  0  0  0  0  0
  -11.0830    5.8110  -16.9270 C   0  0  0  0  0  0  0  0  0  0  0  0
  -10.8260    6.6430  -18.0000 C   0  0  0  0  0  0  0  0  0  0  0  0
  -12.2550    5.7810  -16.1810 N   0  0  0  0  0  0  0  0  0  0  0  0
  -12.1900    4.8270  -15.1840 C   0  0  0  0  0  0  0  0  0  0  0  0
  -13.0620    4.5420  -14.3830 O   0  0  0  0  0  0  0  0  0  0  0  0
  -10.8210    4.1990  -15.3090 C   0  0  0  0  0  0  0  0  0  0  0  0
  -10.4400    3.2150  -14.4610 C   0  0  0  0  0  0  0  0  0  0  0  0
  -11.2310    2.7520  -13.3990 N   0  0  0  0  0  0  0  0  0  0  0  0
  -11.0930    1.4980  -12.7620 C   0  0  0  0  0  0  0  0  0  0  0  0
  -10.4810    0.4130  -13.3840 C   0  0  0  0  0  0  0  0  0  0  0  0
  -10.4050   -0.8340  -12.7460 C   0  0  0  0  0  0  0  0  0  0  0  0
  -10.9390   -1.0400  -11.4630 C   0  0  0  0  0  0  0  0  0  0  0  0
  -10.8630   -2.3380  -10.8300 N   0  0  0  0  0  0  0  0  0  0  0  0
   -9.9000   -2.4830   -9.7350 C   0  0  0  0  0  0  0  0  0  0  0  0
  -11.7470   -3.3900  -11.1760 C   0  0  0  0  0  0  0  0  0  0  0  0
  -11.8700   -3.8370  -12.3190 O   0  0  0  0  0  0  0  0  0  0  0  0
  -12.5940   -3.9650  -10.0120 C   0  0  0  0  0  0  0  0  0  0  0  0
  -13.2690   -2.9760   -9.1510 N   0  0  0  0  0  0  0  0  0  0  0  0
  -13.7800   -3.5230   -7.8820 C   0  0  0  0  0  0  0  0  0  0  0  0
  -15.2690   -3.2100   -7.5860 C   0  0  0  0  0  0  0  0  0  0  0  0
  -15.6660   -1.8000   -7.7630 N   0  0  0  0  0  0  0  0  0  0  0  0
  -15.4940   -1.0300   -6.5340 C   0  0  0  0  0  0  0  0  0  0  0  0
  -14.9420   -1.1670   -8.8850 C   0  0  0  0  0  0  0  0  0  0  0  0
  -14.2710   -2.1660   -9.8560 C   0  0  0  0  0  0  0  0  0  0  0  0
  -11.5590    0.0570  -10.8530 C   0  0  0  0  0  0  0  0  0  0  0  0
  -11.6360    1.3050  -11.4910 C   0  0  0  0  0  0  0  0  0  0  0  0
   -9.0980    2.6140  -14.6240 C   0  0  0  0  0  0  0  0  0  0  0  0
   -8.0470    2.9770  -13.7700 C   0  0  0  0  0  0  0  0  0  0  0  0
   -6.7860    2.3990  -13.9240 C   0  0  0  0  0  0  0  0  0  0  0  0
   -6.5670    1.4570  -14.9290 C   0  0  0  0  0  0  0  0  0  0  0  0
   -7.6060    1.0940  -15.7850 C   0  0  0  0  0  0  0  0  0  0  0  0
   -8.8690    1.6700  -15.6360 C   0  0  0  0  0  0  0  0  0  0  0  0
  -11.1970    7.5110  -21.3083 H   0  0  0  0  0  0  0  0  0  0  0  0
   -9.9276    7.9531  -22.4999 H   0  0  0  0  0  0  0  0  0  0  0  0
  -10.6215    6.2963  -22.4999 H   0  0  0  0  0  0  0  0  0  0  0  0
   -7.6667    5.4937  -18.6643 H   0  0  0  0  0  0  0  0  0  0  0  0
   -8.1936    4.0153  -16.7115 H   0  0  0  0  0  0  0  0  0  0  0  0
  -11.5730    7.3722  -18.3469 H   0  0  0  0  0  0  0  0  0  0  0  0
  -13.0690    6.3570  -16.3330 H   0  0  0  0  0  0  0  0  0  0  0  0
  -12.2230    2.9630  -13.5640 H   0  0  0  0  0  0  0  0  0  0  0  0
  -10.0513    0.5353  -14.3892 H   0  0  0  0  0  0  0  0  0  0  0  0
   -9.9148   -1.6718  -13.2634 H   0  0  0  0  0  0  0  0  0  0  0  0
  -10.4254   -2.4039   -8.7718 H   0  0  0  0  0  0  0  0  0  0  0  0
   -9.4096   -3.4651   -9.8056 H   0  0  0  0  0  0  0  0  0  0  0  0
   -9.1422   -1.6888   -9.8056 H   0  0  0  0  0  0  0  0  0  0  0  0
  -13.3673   -4.6145  -10.4479 H   0  0  0  0  0  0  0  0  0  0  0  0
  -11.8810   -4.4885   -9.3581 H   0  0  0  0  0  0  0  0  0  0  0  0
  -13.6599   -4.6161   -7.9086 H   0  0  0  0  0  0  0  0  0  0  0  0
  -13.1994   -3.0391   -7.0828 H   0  0  0  0  0  0  0  0  0  0  0  0
  -15.8853   -3.8234   -8.2598 H   0  0  0  0  0  0  0  0  0  0  0  0
  -15.4205   -3.4363   -6.5202 H   0  0  0  0  0  0  0  0  0  0  0  0
  -15.6411   -1.6884   -5.6652 H   0  0  0  0  0  0  0  0  0  0  0  0
  -14.4791   -0.6066   -6.5056 H   0  0  0  0  0  0  0  0  0  0  0  0
  -16.2322   -0.2150   -6.5056 H   0  0  0  0  0  0  0  0  0  0  0  0
  -15.6581   -0.5590   -9.4573 H   0  0  0  0  0  0  0  0  0  0  0  0
  -14.1326   -0.5698   -8.4397 H   0  0  0  0  0  0  0  0  0  0  0  0
  -15.0390   -2.8294  -10.2804 H   0  0  0  0  0  0  0  0  0  0  0  0
  -13.7717   -1.6017  -10.6574 H   0  0  0  0  0  0  0  0  0  0  0  0
  -11.9959   -0.0618   -9.8505 H   0  0  0  0  0  0  0  0  0  0  0  0
  -12.1321    2.1440  -10.9811 H   0  0  0  0  0  0  0  0  0  0  0  0
   -8.2167    3.7195  -12.9763 H   0  0  0  0  0  0  0  0  0  0  0  0
   -5.9640    2.6867  -13.2520 H   0  0  0  0  0  0  0  0  0  0  0  0
   -5.5734    0.9999  -15.0464 H   0  0  0  0  0  0  0  0  0  0  0  0
   -7.4304    0.3529  -16.5787 H   0  0  0  0  0  0  0  0  0  0  0  0
   -9.6864    1.3829  -16.3138 H   0  0  0  0  0  0  0  0  0  0  0  0
  1  2  1  0
  2  3  1  0
  3  4  2  0
  3  5  1  0
  5  6  1  0
  6  7  2  0
  7  8  1  0
  8  9  2  0
  9 10  1  0
  9 11  1  0
 11 12  1  0
 12 13  2  0
 12 14  1  0
 14 15  2  0
 15 16  1  0
 16 17  1  0
 17 18  1  0
 18 19  2  0
 19 20  1  0
 20 21  1  0
 21 22  1  0
 21 23  1  0
 23 24  2  0
 23 25  1  0
 25 26  1  0
 26 27  1  0
 27 28  1  0
 28 29  1  0
 29 30  1  0
 29 31  1  0
 31 32  1  0
 20 33  2  0
 33 34  1  0
 15 35  1  0
 35 36  2  0
 36 37  1  0
 37 38  2  0
 38 39  1  0
 39 40  2  0
 10  5  2  0
 34 17  2  0
 40 35  1  0
 14  8  1  0
 32 26  1  0
  1 41  1  0
  1 42  1  0
  1 43  1  0
  6 44  1  0
  7 45  1  0
 10 46  1  0
 11 47  1  0
 16 48  1  0
 18 49  1  0
 19 50  1  0
 22 51  1  0
 22 52  1  0
 22 53  1  0
 25 54  1  0
 25 55  1  0
 27 56  1  0
 27 57  1  0
 28 58  1  0
 28 59  1  0
 30 60  1  0
 30 61  1  0
 30 62  1  0
 31 63  1  0
 31 64  1  0
 32 65  1  0
 32 66  1  0
 33 67  1  0
 34 68  1  0
 36 69  1  0
 37 70  1  0
 38 71  1  0
 39 72  1  0
 40 73  1  0
M  END
>  <meeko>  (1) 
{"is_sidechain": false}

>  <vina_affinity_kcal_mol>  (1) 
-9.781

>  <pose_rank>  (1) 
1

$$$$

     RDKit          3D

 73 77  0  0  0  0  0  0  0  0999 V2000
  -17.1180   -1.5150   -6.7410 C   0  0  0  0  0  0  0  0  0  0  0  0
  -15.9560   -0.6860   -6.8010 O   0  0  0  0  0  0  0  0  0  0  0  0
  -16.0720    0.3620   -7.6530 C   0  0  0  0  0  0  0  0  0  0  0  0
  -16.9680    1.1920   -7.6520 O   0  0  0  0  0  0  0  0  0  0  0  0
  -14.9410    0.3840   -8.6210 C   0  0  0  0  0  0  0  0  0  0  0  0
  -14.8930    1.2880   -9.7040 C   0  0  0  0  0  0  0  0  0  0  0  0
  -13.8130    1.2870  -10.6020 C   0  0  0  0  0  0  0  0  0  0  0  0
  -12.7870    0.3780  -10.4100 C   0  0  0  0  0  0  0  0  0  0  0  0
  -12.8530   -0.5110   -9.3300 C   0  0  0  0  0  0  0  0  0  0  0  0
  -13.9010   -0.5340   -8.4300 C   0  0  0  0  0  0  0  0  0  0  0  0
  -11.7390   -1.3410   -9.3040 N   0  0  0  0  0  0  0  0  0  0  0  0
  -10.8830   -1.0640  -10.3520 C   0  0  0  0  0  0  0  0  0  0  0  0
   -9.8380   -1.6310  -10.6170 O   0  0  0  0  0  0  0  0  0  0  0  0
  -11.5230    0.0760  -11.1100 C   0  0  0  0  0  0  0  0  0  0  0  0
  -10.9220    0.5910  -12.2080 C   0  0  0  0  0  0  0  0  0  0  0  0
   -9.6720    0.1650  -12.6840 N   0  0  0  0  0  0  0  0  0  0  0  0
   -8.9890    0.7130  -13.7930 C   0  0  0  0  0  0  0  0  0  0  0  0
   -8.0870    1.7660  -13.6630 C   0  0  0  0  0  0  0  0  0  0  0  0
   -7.4610    2.3230  -14.7880 C   0  0  0  0  0  0  0  0  0  0  0  0
   -7.7170    1.8450  -16.0850 C   0  0  0  0  0  0  0  0  0  0  0  0
   -7.0740    2.4440  -17.2330 N   0  0  0  0  0  0  0  0  0  0  0  0
   -6.5800    1.5280  -18.2650 C   0  0  0  0  0  0  0  0  0  0  0  0
   -7.0150    3.8490  -17.4080 C   0  0  0  0  0  0  0  0  0  0  0  0
   -5.9630    4.4850  -17.5160 O   0  0  0  0  0  0  0  0  0  0  0  0
   -8.3820    4.5790  -17.4440 C   0  0  0  0  0  0  0  0  0  0  0  0
   -8.4130    5.8600  -18.1740 N   0  0  0  0  0  0  0  0  0  0  0  0
   -8.7780    7.0230  -17.3450 C   0  0  0  0  0  0  0  0  0  0  0  0
   -9.9260    7.8970  -17.9120 C   0  0  0  0  0  0  0  0  0  0  0  0
   -9.7950    8.2700  -19.3330 N   0  0  0  0  0  0  0  0  0  0  0  0
   -9.0630    9.5220  -19.5000 C   0  0  0  0  0  0  0  0  0  0  0  0
   -9.1720    7.1880  -20.1240 C   0  0  0  0  0  0  0  0  0  0  0  0
   -9.1730    5.8060  -19.4290 C   0  0  0  0  0  0  0  0  0  0  0  0
   -8.6320    0.7930  -16.2020 C   0  0  0  0  0  0  0  0  0  0  0  0
   -9.2590    0.2360  -15.0770 C   0  0  0  0  0  0  0  0  0  0  0  0
  -11.5860    1.6950  -12.9340 C   0  0  0  0  0  0  0  0  0  0  0  0
  -12.7250    1.4510  -13.7150 C   0  0  0  0  0  0  0  0  0  0  0  0
  -13.3520    2.4990  -14.3900 C   0  0  0  0  0  0  0  0  0  0  0  0
  -12.8470    3.7950  -14.2890 C   0  0  0  0  0  0  0  0  0  0  0  0
  -11.7130    4.0460  -13.5180 C   0  0  0  0  0  0  0  0  0  0  0  0
  -11.0820    3.0000  -12.8430 C   0  0  0  0  0  0  0  0  0  0  0  0
  -17.3808   -1.7025   -5.6894 H   0  0  0  0  0  0  0  0  0  0  0  0
  -17.9556   -1.0093   -7.2437 H   0  0  0  0  0  0  0  0  0  0  0  0
  -16.9123   -2.4716   -7.2437 H   0  0  0  0  0  0  0  0  0  0  0  0
  -15.7149    2.0050   -9.8470 H   0  0  0  0  0  0  0  0  0  0  0  0
  -13.7831    1.9958  -11.4427 H   0  0  0  0  0  0  0  0  0  0  0  0
  -13.9178   -1.2479   -7.5933 H   0  0  0  0  0  0  0  0  0  0  0  0
  -11.5580   -2.0710   -8.6310 H   0  0  0  0  0  0  0  0  0  0  0  0
   -9.6190   -0.8610  -12.7020 H   0  0  0  0  0  0  0  0  0  0  0  0
   -7.8621    2.1668  -12.6636 H   0  0  0  0  0  0  0  0  0  0  0  0
   -6.7528    3.1537  -14.6521 H   0  0  0  0  0  0  0  0  0  0  0  0
   -6.1098    0.6561  -17.7868 H   0  0  0  0  0  0  0  0  0  0  0  0
   -7.4202    1.1939  -18.8914 H   0  0  0  0  0  0  0  0  0  0  0  0
   -5.8392    2.0465  -18.8914 H   0  0  0  0  0  0  0  0  0  0  0  0
   -9.1110    3.9046  -17.9170 H   0  0  0  0  0  0  0  0  0  0  0  0
   -8.6118    4.8289  -16.3977 H   0  0  0  0  0  0  0  0  0  0  0  0
   -9.0868    6.6536  -16.3560 H   0  0  0  0  0  0  0  0  0  0  0  0
   -7.8878    7.6684  -17.3116 H   0  0  0  0  0  0  0  0  0  0  0  0
  -10.8671    7.3401  -17.7928 H   0  0  0  0  0  0  0  0  0  0  0  0
   -9.8958    8.8404  -17.3472 H   0  0  0  0  0  0  0  0  0  0  0  0
   -8.8193    9.9389  -18.5117 H   0  0  0  0  0  0  0  0  0  0  0  0
   -8.1337    9.3319  -20.0571 H   0  0  0  0  0  0  0  0  0  0  0  0
   -9.6844   10.2386  -20.0571 H   0  0  0  0  0  0  0  0  0  0  0  0
   -9.7205    7.0961  -21.0731 H   0  0  0  0  0  0  0  0  0  0  0  0
   -8.1175    7.4684  -20.2633 H   0  0  0  0  0  0  0  0  0  0  0  0
  -10.2102    5.5111  -19.2115 H   0  0  0  0  0  0  0  0  0  0  0  0
   -8.7018    5.0713  -20.0984 H   0  0  0  0  0  0  0  0  0  0  0  0
   -8.8654    0.3930  -17.1998 H   0  0  0  0  0  0  0  0  0  0  0  0
   -9.9743   -0.5892  -15.2088 H   0  0  0  0  0  0  0  0  0  0  0  0
  -13.1256    0.4297  -13.7958 H   0  0  0  0  0  0  0  0  0  0  0  0
  -14.2448    2.3029  -15.0019 H   0  0  0  0  0  0  0  0  0  0  0  0
  -13.3444    4.6208  -14.8187 H   0  0  0  0  0  0  0  0  0  0  0  0
  -11.3154    5.0688  -13.4416 H   0  0  0  0  0  0  0  0  0  0  0  0
  -10.1859    3.2003  -12.2373 H   0  0  0  0  0  0  0  0  0  0  0  0
  1  2  1  0
  2  3  1  0
  3  4  2  0
  3  5  1  0
  5  6  1  0
  6  7  2  0
  7  8  1  0
  8  9  2  0
  9 10  1  0
  9 11  1  0
 11 12  1  0
 12 13  2  0
 12 14  1  0
 14 15  2  0
 15 16  1  0
 16 17  1  0
 17 18  1  0
 18 19  2  0
 19 20  1  0
 20 21  1  0
 21 22  1  0
 21 23  1  0
 23 24  2  0
 23 25  1  0
 25 26  1  0
 26 27  1  0
 27 28  1  0
 28 29  1  0
 29 30  1  0
 29 31  1  0
 31 32  1  0
 20 33  2  0
 33 34  1  0
 15 35  1  0
 35 36  2  0
 36 37  1  0
 37 38  2  0
 38 39  1  0
 39 40  2  0
 10  5  2  0
 34 17  2  0
 40 35  1  0
 14  8  1  0
 32 26  1  0
  1 41  1  0
  1 42  1  0
  1 43  1  0
  6 44  1  0
  7 45  1  0
 10 46  1  0
 11 47  1  0
 16 48  1  0
 18 49  1  0
 19 50  1  0
 22 51  1  0
 22 52  1  0
 22 53  1  0
 25 54  1  0
 25 55  1  0
 27 56  1  0
 27 57  1  0
 28 58  1  0
 28 59  1  0
 30 60  1  0
 30 61  1  0
 30 62  1  0
 31 63  1  0
 31 64  1  0
 32 65  1  0
 32 66  1  0
 33 67  1  0
 34 68  1  0
 36 69  1  0
 37 70  1  0
 38 71  1  0
 39 72  1  0
 40 73  1  0
M  END
>  <meeko>  (2) 
{"is_sidechain": false}

>  <vina_affinity_kcal_mol>  (2) 
-9.659

>  <pose_rank>  (2) 
2

$$$$

     RDKit          3D

 73 77  0  0  0  0  0  0  0  0999 V2000
  -10.0540    7.1780  -22.0420 C   0  0  0  0  0  0  0  0  0  0  0  0
   -9.4850    6.4090  -20.9800 O   0  0  0  0  0  0  0  0  0  0  0  0
   -9.9020    6.7820  -19.7460 C   0  0  0  0  0  0  0  0  0  0  0  0
  -10.6050    7.7470  -19.4880 O   0  0  0  0  0  0  0  0  0  0  0  0
   -9.3860    5.8470  -18.7090 C   0  0  0  0  0  0  0  0  0  0  0  0
  -10.2390    5.1810  -17.8020 C   0  0  0  0  0  0  0  0  0  0  0  0
   -9.7250    4.3040  -16.8340 C   0  0  0  0  0  0  0  0  0  0  0  0
   -8.3570    4.0990  -16.7780 C   0  0  0  0  0  0  0  0  0  0  0  0
   -7.5270    4.7690  -17.6860 C   0  0  0  0  0  0  0  0  0  0  0  0
   -8.0030    5.6380  -18.6500 C   0  0  0  0  0  0  0  0  0  0  0  0
   -6.1940    4.4380  -17.4740 N   0  0  0  0  0  0  0  0  0  0  0  0
   -6.0590    3.5490  -16.4260 C   0  0  0  0  0  0  0  0  0  0  0  0
   -5.0220    3.0890  -15.9810 O   0  0  0  0  0  0  0  0  0  0  0  0
   -7.4630    3.2810  -15.9360 C   0  0  0  0  0  0  0  0  0  0  0  0
   -7.6770    2.4340  -14.9010 C   0  0  0  0  0  0  0  0  0  0  0  0
   -6.6570    1.7170  -14.2590 N   0  0  0  0  0  0  0  0  0  0  0  0
   -6.2890    0.3830  -14.5450 C   0  0  0  0  0  0  0  0  0  0  0  0
   -5.6660   -0.4340  -13.6050 C   0  0  0  0  0  0  0  0  0  0  0  0
   -5.2660   -1.7370  -13.9350 C   0  0  0  0  0  0  0  0  0  0  0  0
   -5.4750   -2.2700  -15.2190 C   0  0  0  0  0  0  0  0  0  0  0  0
   -5.0400   -3.6110  -15.5420 N   0  0  0  0  0  0  0  0  0  0  0  0
   -6.0290   -4.6810  -15.3840 C   0  0  0  0  0  0  0  0  0  0  0  0
   -3.7570   -3.8690  -16.0860 C   0  0  0  0  0  0  0  0  0  0  0  0
   -3.4630   -4.9010  -16.6940 O   0  0  0  0  0  0  0  0  0  0  0  0
   -2.6970   -2.7610  -15.8590 C   0  0  0  0  0  0  0  0  0  0  0  0
   -2.6240   -1.7140  -16.8950 N   0  0  0  0  0  0  0  0  0  0  0  0
   -1.6360   -1.9760  -17.9560 C   0  0  0  0  0  0  0  0  0  0  0  0
   -0.6430   -0.8180  -18.2290 C   0  0  0  0  0  0  0  0  0  0  0  0
   -1.2540    0.5160  -18.3820 N   0  0  0  0  0  0  0  0  0  0  0  0
   -1.6090    0.7940  -19.7710 C   0  0  0  0  0  0  0  0  0  0  0  0
   -2.4260    0.6820  -17.4970 C   0  0  0  0  0  0  0  0  0  0  0  0
   -2.5140   -0.3530  -16.3520 C   0  0  0  0  0  0  0  0  0  0  0  0
   -6.0940   -1.4360  -16.1560 C   0  0  0  0  0  0  0  0  0  0  0  0
   -6.4930   -0.1310  -15.8270 C   0  0  0  0  0  0  0  0  0  0  0  0
   -9.0630    2.2090  -14.4390 C   0  0  0  0  0  0  0  0  0  0  0  0
   -9.7350    1.0190  -14.7530 C   0  0  0  0  0  0  0  0  0  0  0  0
  -11.0400    0.8090  -14.3060 C   0  0  0  0  0  0  0  0  0  0  0  0
  -11.6820    1.7850  -13.5440 C   0  0  0  0  0  0  0  0  0  0  0  0
  -11.0240    2.9740  -13.2310 C   0  0  0  0  0  0  0  0  0  0  0  0
   -9.7180    3.1870  -13.6770 C   0  0  0  0  0  0  0  0  0  0  0  0
  -10.6583    7.9947  -21.6203 H   0  0  0  0  0  0  0  0  0  0  0  0
   -9.2488    7.5998  -22.6615 H   0  0  0  0  0  0  0  0  0  0  0  0
  -10.6928    6.5313  -22.6615 H   0  0  0  0  0  0  0  0  0  0  0  0
  -11.3243    5.3523  -17.8549 H   0  0  0  0  0  0  0  0  0  0  0  0
  -10.3973    3.7887  -16.1323 H   0  0  0  0  0  0  0  0  0  0  0  0
   -7.3196    6.1470  -19.3457 H   0  0  0  0  0  0  0  0  0  0  0  0
   -5.4040    4.7960  -17.9910 H   0  0  0  0  0  0  0  0  0  0  0  0
   -6.6880    1.8690  -13.2430 H   0  0  0  0  0  0  0  0  0  0  0  0
   -5.4851   -0.0520  -12.5894 H   0  0  0  0  0  0  0  0  0  0  0  0
   -4.7764   -2.3576  -13.1700 H   0  0  0  0  0  0  0  0  0  0  0  0
   -6.2005   -4.8666  -14.3134 H   0  0  0  0  0  0  0  0  0  0  0  0
   -6.9739   -4.3801  -15.8600 H   0  0  0  0  0  0  0  0  0  0  0  0
   -5.6548   -5.5994  -15.8600 H   0  0  0  0  0  0  0  0  0  0  0  0
   -2.9226   -2.2708  -14.9005 H   0  0  0  0  0  0  0  0  0  0  0  0
   -1.7234   -3.2723  -15.8851 H   0  0  0  0  0  0  0  0  0  0  0  0
   -1.0537   -2.8637  -17.6679 H   0  0  0  0  0  0  0  0  0  0  0  0
   -2.2111   -2.1120  -18.8838 H   0  0  0  0  0  0  0  0  0  0  0  0
    0.0650   -0.7727  -17.3884 H   0  0  0  0  0  0  0  0  0  0  0  0
   -0.1683   -1.0468  -19.1946 H   0  0  0  0  0  0  0  0  0  0  0  0
   -2.4748    1.4720  -19.7995 H   0  0  0  0  0  0  0  0  0  0  0  0
   -0.7561    1.2668  -20.2799 H   0  0  0  0  0  0  0  0  0  0  0  0
   -1.8636   -0.1474  -20.2799 H   0  0  0  0  0  0  0  0  0  0  0  0
   -2.3801    1.6861  -17.0502 H   0  0  0  0  0  0  0  0  0  0  0  0
   -3.3168    0.5319  -18.1247 H   0  0  0  0  0  0  0  0  0  0  0  0
   -1.6089   -0.2833  -15.7308 H   0  0  0  0  0  0  0  0  0  0  0  0
   -3.4071   -0.1385  -15.7468 H   0  0  0  0  0  0  0  0  0  0  0  0
   -6.2723   -1.8116  -17.1744 H   0  0  0  0  0  0  0  0  0  0  0  0
   -6.9741    0.4967  -16.5915 H   0  0  0  0  0  0  0  0  0  0  0  0
   -9.2312    0.2478  -15.3542 H   0  0  0  0  0  0  0  0  0  0  0  0
  -11.5626   -0.1265  -14.5546 H   0  0  0  0  0  0  0  0  0  0  0  0
  -12.7095    1.6165  -13.1892 H   0  0  0  0  0  0  0  0  0  0  0  0
  -11.5336    3.7439  -12.6330 H   0  0  0  0  0  0  0  0  0  0  0  0
   -9.2009    4.1258  -13.4295 H   0  0  0  0  0  0  0  0  0  0  0  0
  1  2  1  0
  2  3  1  0
  3  4  2  0
  3  5  1  0
  5  6  1  0
  6  7  2  0
  7  8  1  0
  8  9  2  0
  9 10  1  0
  9 11  1  0
 11 12  1  0
 12 13  2  0
 12 14  1  0
 14 15  2  0
 15 16  1  0
 16 17  1  0
 17 18  1  0
 18 19  2  0
 19 20  1  0
 20 21  1  0
 21 22  1  0
 21 23  1  0
 23 24  2  0
 23 25  1  0
 25 26  1  0
 26 27  1  0
 27 28  1  0
 28 29  1  0
 29 30  1  0
 29 31  1  0
 31 32  1  0
 20 33  2  0
 33 34  1  0
 15 35  1  0
 35 36  2  0
 36 37  1  0
 37 38  2  0
 38 39  1  0
 39 40  2  0
 10  5  2  0
 34 17  2  0
 40 35  1  0
 14  8  1  0
 32 26  1  0
  1 41  1  0
  1 42  1  0
  1 43  1  0
  6 44  1  0
  7 45  1  0
 10 46  1  0
 11 47  1  0
 16 48  1  0
 18 49  1  0
 19 50  1  0
 22 51  1  0
 22 52  1  0
 22 53  1  0
 25 54  1  0
 25 55  1  0
 27 56  1  0
 27 57  1  0
 28 58  1  0
 28 59  1  0
 30 60  1  0
 30 61  1  0
 30 62  1  0
 31 63  1  0
 31 64  1  0
 32 65  1  0
 32 66  1  0
 33 67  1  0
 34 68  1  0
 36 69  1  0
 37 70  1  0
 38 71  1  0
 39 72  1  0
 40 73  1  0
M  END
>  <meeko>  (3) 
{"is_sidechain": false}

>  <vina_affinity_kcal_mol>  (3) 
-9.639

>  <pose_rank>  (3) 
3

$$$$

     RDKit          3D

 73 77  0  0  0  0  0  0  0  0999 V2000
   -9.9390    8.2860  -20.2320 C   0  0  0  0  0  0  0  0  0  0  0  0
   -9.4130    7.8520  -18.9770 O   0  0  0  0  0  0  0  0  0  0  0  0
   -8.7490    6.6710  -19.0380 C   0  0  0  0  0  0  0  0  0  0  0  0
   -7.9160    6.3590  -19.8740 O   0  0  0  0  0  0  0  0  0  0  0  0
   -9.1690    5.7710  -17.9290 C   0  0  0  0  0  0  0  0  0  0  0  0
   -8.3970    4.6610  -17.5250 C   0  0  0  0  0  0  0  0  0  0  0  0
   -8.8170    3.8290  -16.4750 C   0  0  0  0  0  0  0  0  0  0  0  0
  -10.0110    4.1120  -15.8360 C   0  0  0  0  0  0  0  0  0  0  0  0
  -10.7640    5.2180  -16.2510 C   0  0  0  0  0  0  0  0  0  0  0  0
  -10.3770    6.0560  -17.2800 C   0  0  0  0  0  0  0  0  0  0  0  0
  -11.9240    5.3390  -15.4950 N   0  0  0  0  0  0  0  0  0  0  0  0
  -12.0140    4.3340  -14.5520 C   0  0  0  0  0  0  0  0  0  0  0  0
  -12.9190    4.1510  -13.7570 O   0  0  0  0  0  0  0  0  0  0  0  0
  -10.7670    3.4990  -14.7250 C   0  0  0  0  0  0  0  0  0  0  0  0
  -10.5490    2.4210  -13.9370 C   0  0  0  0  0  0  0  0  0  0  0  0
  -11.4030    2.0350  -12.8930 N   0  0  0  0  0  0  0  0  0  0  0  0
  -11.2430    0.8850  -12.0870 C   0  0  0  0  0  0  0  0  0  0  0  0
  -10.6690   -0.2880  -12.5720 C   0  0  0  0  0  0  0  0  0  0  0  0
  -10.5690   -1.4290  -11.7630 C   0  0  0  0  0  0  0  0  0  0  0  0
  -11.0420   -1.4390  -10.4400 C   0  0  0  0  0  0  0  0  0  0  0  0
  -10.9450   -2.6320   -9.6290 N   0  0  0  0  0  0  0  0  0  0  0  0
  -10.2200   -2.5110   -8.3610 C   0  0  0  0  0  0  0  0  0  0  0  0
  -11.6040   -3.8340   -9.9870 C   0  0  0  0  0  0  0  0  0  0  0  0
  -11.1120   -4.9570   -9.8480 O   0  0  0  0  0  0  0  0  0  0  0  0
  -13.0200   -3.6670  -10.5960 C   0  0  0  0  0  0  0  0  0  0  0  0
  -14.1250   -3.5060   -9.6330 N   0  0  0  0  0  0  0  0  0  0  0  0
  -14.6610   -2.1360   -9.5470 C   0  0  0  0  0  0  0  0  0  0  0  0
  -14.7460   -1.5540   -8.1130 C   0  0  0  0  0  0  0  0  0  0  0  0
  -15.3660   -2.4390   -7.1070 N   0  0  0  0  0  0  0  0  0  0  0  0
  -16.8100   -2.2420   -7.0300 C   0  0  0  0  0  0  0  0  0  0  0  0
  -15.0420   -3.8590   -7.3580 C   0  0  0  0  0  0  0  0  0  0  0  0
  -13.8450   -4.0830   -8.3120 C   0  0  0  0  0  0  0  0  0  0  0  0
  -11.6250   -0.2580   -9.9680 C   0  0  0  0  0  0  0  0  0  0  0  0
  -11.7260    0.8850  -10.7770 C   0  0  0  0  0  0  0  0  0  0  0  0
   -9.3250    1.6180  -14.1470 C   0  0  0  0  0  0  0  0  0  0  0  0
   -8.1640    1.8840  -13.4070 C   0  0  0  0  0  0  0  0  0  0  0  0
   -7.0140    1.1180  -13.6050 C   0  0  0  0  0  0  0  0  0  0  0  0
   -7.0170    0.0830  -14.5400 C   0  0  0  0  0  0  0  0  0  0  0  0
   -8.1660   -0.1850  -15.2830 C   0  0  0  0  0  0  0  0  0  0  0  0
   -9.3170    0.5800  -15.0890 C   0  0  0  0  0  0  0  0  0  0  0  0
  -10.7769    8.9774  -20.0590 H   0  0  0  0  0  0  0  0  0  0  0  0
   -9.1510    8.8002  -20.8018 H   0  0  0  0  0  0  0  0  0  0  0  0
  -10.2942    7.4147  -20.8018 H   0  0  0  0  0  0  0  0  0  0  0  0
   -7.4503    4.4440  -18.0414 H   0  0  0  0  0  0  0  0  0  0  0  0
   -8.2074    2.9672  -16.1658 H   0  0  0  0  0  0  0  0  0  0  0  0
  -10.9953    6.9155  -17.5783 H   0  0  0  0  0  0  0  0  0  0  0  0
  -12.6340    6.0480  -15.6060 H   0  0  0  0  0  0  0  0  0  0  0  0
  -12.3870    2.1460  -13.1650 H   0  0  0  0  0  0  0  0  0  0  0  0
  -10.2890   -0.3196  -13.6038 H   0  0  0  0  0  0  0  0  0  0  0  0
  -10.1086   -2.3393  -12.1746 H   0  0  0  0  0  0  0  0  0  0  0  0
  -10.9236   -2.6284   -7.5237 H   0  0  0  0  0  0  0  0  0  0  0  0
   -9.4483   -3.2928   -8.3038 H   0  0  0  0  0  0  0  0  0  0  0  0
   -9.7440   -1.5210   -8.3038 H   0  0  0  0  0  0  0  0  0  0  0  0
  -13.0051   -2.7771  -11.2424 H   0  0  0  0  0  0  0  0  0  0  0  0
  -13.2260   -4.6076  -11.1278 H   0  0  0  0  0  0  0  0  0  0  0  0
  -14.0128   -1.4780  -10.1443 H   0  0  0  0  0  0  0  0  0  0  0  0
  -15.6947   -2.1867   -9.9197 H   0  0  0  0  0  0  0  0  0  0  0  0
  -13.7236   -1.3240   -7.7788 H   0  0  0  0  0  0  0  0  0  0  0  0
  -15.3973   -0.6702   -8.1823 H   0  0  0  0  0  0  0  0  0  0  0  0
  -17.1186   -2.1999   -5.9750 H   0  0  0  0  0  0  0  0  0  0  0  0
  -17.0785   -1.2989   -7.5285 H   0  0  0  0  0  0  0  0  0  0  0  0
  -17.3213   -3.0787   -7.5285 H   0  0  0  0  0  0  0  0  0  0  0  0
  -14.8070   -4.3337   -6.3940 H   0  0  0  0  0  0  0  0  0  0  0  0
  -15.9219   -4.2993   -7.8500 H   0  0  0  0  0  0  0  0  0  0  0  0
  -12.9504   -3.6024   -7.8893 H   0  0  0  0  0  0  0  0  0  0  0  0
  -13.6773   -5.1643   -8.4245 H   0  0  0  0  0  0  0  0  0  0  0  0
  -12.0132   -0.2242   -8.9393 H   0  0  0  0  0  0  0  0  0  0  0  0
  -12.1931    1.7950  -10.3723 H   0  0  0  0  0  0  0  0  0  0  0  0
   -8.1595    2.6989  -12.6681 H   0  0  0  0  0  0  0  0  0  0  0  0
   -6.1049    1.3307  -13.0233 H   0  0  0  0  0  0  0  0  0  0  0  0
   -6.1114   -0.5228  -14.6915 H   0  0  0  0  0  0  0  0  0  0  0  0
   -8.1653   -0.9996  -16.0222 H   0  0  0  0  0  0  0  0  0  0  0  0
  -10.2216    0.3676  -15.6777 H   0  0  0  0  0  0  0  0  0  0  0  0
  1  2  1  0
  2  3  1  0
  3  4  2  0
  3  5  1  0
  5  6  1  0
  6  7  2  0
  7  8  1  0
  8  9  2  0
  9 10  1  0
  9 11  1  0
 11 12  1  0
 12 13  2  0
 12 14  1  0
 14 15  2  0
 15 16  1  0
 16 17  1  0
 17 18  1  0
 18 19  2  0
 19 20  1  0
 20 21  1  0
 21 22  1  0
 21 23  1  0
 23 24  2  0
 23 25  1  0
 25 26  1  0
 26 27  1  0
 27 28  1  0
 28 29  1  0
 29 30  1  0
 29 31  1  0
 31 32  1  0
 20 33  2  0
 33 34  1  0
 15 35  1  0
 35 36  2  0
 36 37  1  0
 37 38  2  0
 38 39  1  0
 39 40  2  0
 10  5  2  0
 34 17  2  0
 40 35  1  0
 14  8  1  0
 32 26  1  0
  1 41  1  0
  1 42  1  0
  1 43  1  0
  6 44  1  0
  7 45  1  0
 10 46  1  0
 11 47  1  0
 16 48  1  0
 18 49  1  0
 19 50  1  0
 22 51  1  0
 22 52  1  0
 22 53  1  0
 25 54  1  0
 25 55  1  0
 27 56  1  0
 27 57  1  0
 28 58  1  0
 28 59  1  0
 30 60  1  0
 30 61  1  0
 30 62  1  0
 31 63  1  0
 31 64  1  0
 32 65  1  0
 32 66  1  0
 33 67  1  0
 34 68  1  0
 36 69  1  0
 37 70  1  0
 38 71  1  0
 39 72  1  0
 40 73  1  0
M  END
>  <meeko>  (4) 
{"is_sidechain": false}

>  <vina_affinity_kcal_mol>  (4) 
-9.526

>  <pose_rank>  (4) 
4

$$$$

     RDKit          3D

 73 77  0  0  0  0  0  0  0  0999 V2000
   -9.7620    7.2630  -21.4310 C   0  0  0  0  0  0  0  0  0  0  0  0
   -9.1470    6.4460  -20.4330 O   0  0  0  0  0  0  0  0  0  0  0  0
   -9.9110    6.2590  -19.3290 C   0  0  0  0  0  0  0  0  0  0  0  0
  -10.9960    6.7750  -19.1120 O   0  0  0  0  0  0  0  0  0  0  0  0
   -9.2500    5.3190  -18.3820 C   0  0  0  0  0  0  0  0  0  0  0  0
   -9.9820    4.5400  -17.4590 C   0  0  0  0  0  0  0  0  0  0  0  0
   -9.3320    3.6610  -16.5780 C   0  0  0  0  0  0  0  0  0  0  0  0
   -7.9530    3.5670  -16.6250 C   0  0  0  0  0  0  0  0  0  0  0  0
   -7.2440    4.3480  -17.5480 C   0  0  0  0  0  0  0  0  0  0  0  0
   -7.8550    5.2220  -18.4270 C   0  0  0  0  0  0  0  0  0  0  0  0
   -5.8780    4.1180  -17.4440 N   0  0  0  0  0  0  0  0  0  0  0  0
   -5.5980    3.1920  -16.4590 C   0  0  0  0  0  0  0  0  0  0  0  0
   -4.4990    2.7980  -16.1100 O   0  0  0  0  0  0  0  0  0  0  0  0
   -6.9390    2.7840  -15.8910 C   0  0  0  0  0  0  0  0  0  0  0  0
   -7.0110    1.8720  -14.8940 C   0  0  0  0  0  0  0  0  0  0  0  0
   -5.8950    1.2100  -14.3610 N   0  0  0  0  0  0  0  0  0  0  0  0
   -5.7610   -0.1900  -14.2260 C   0  0  0  0  0  0  0  0  0  0  0  0
   -5.4150   -1.0100  -15.2980 C   0  0  0  0  0  0  0  0  0  0  0  0
   -5.3390   -2.4020  -15.1450 C   0  0  0  0  0  0  0  0  0  0  0  0
   -5.6080   -3.0250  -13.9140 C   0  0  0  0  0  0  0  0  0  0  0  0
   -5.5400   -4.4630  -13.7830 N   0  0  0  0  0  0  0  0  0  0  0  0
   -5.1360   -4.9880  -12.4750 C   0  0  0  0  0  0  0  0  0  0  0  0
   -5.9440   -5.3290  -14.8290 C   0  0  0  0  0  0  0  0  0  0  0  0
   -6.6870   -4.9900  -15.7540 O   0  0  0  0  0  0  0  0  0  0  0  0
   -5.4010   -6.7790  -14.7490 C   0  0  0  0  0  0  0  0  0  0  0  0
   -4.3560   -7.1350  -15.7270 N   0  0  0  0  0  0  0  0  0  0  0  0
   -3.2640   -6.1510  -15.8340 C   0  0  0  0  0  0  0  0  0  0  0  0
   -2.9490   -5.6760  -17.2760 C   0  0  0  0  0  0  0  0  0  0  0  0
   -2.8080   -6.7480  -18.2790 N   0  0  0  0  0  0  0  0  0  0  0  0
   -1.4310   -7.2210  -18.3760 C   0  0  0  0  0  0  0  0  0  0  0  0
   -3.7310   -7.8700  -18.0090 C   0  0  0  0  0  0  0  0  0  0  0  0
   -4.8860   -7.5290  -17.0390 C   0  0  0  0  0  0  0  0  0  0  0  0
   -5.9630   -2.1900  -12.8480 C   0  0  0  0  0  0  0  0  0  0  0  0
   -6.0400   -0.7970  -13.0010 C   0  0  0  0  0  0  0  0  0  0  0  0
   -8.3390    1.5100  -14.3530 C   0  0  0  0  0  0  0  0  0  0  0  0
   -8.9360    2.2870  -13.3510 C   0  0  0  0  0  0  0  0  0  0  0  0
  -10.1930    1.9450  -12.8510 C   0  0  0  0  0  0  0  0  0  0  0  0
  -10.8610    0.8260  -13.3490 C   0  0  0  0  0  0  0  0  0  0  0  0
  -10.2730    0.0450  -14.3430 C   0  0  0  0  0  0  0  0  0  0  0  0
   -9.0150    0.3840  -14.8440 C   0  0  0  0  0  0  0  0  0  0  0  0
  -10.3554    8.0514  -20.9449 H   0  0  0  0  0  0  0  0  0  0  0  0
   -8.9844    7.7234  -22.0582 H   0  0  0  0  0  0  0  0  0  0  0  0
  -10.4196    6.6431  -22.0582 H   0  0  0  0  0  0  0  0  0  0  0  0
  -11.0785    4.6232  -17.4299 H   0  0  0  0  0  0  0  0  0  0  0  0
   -9.9097    3.0574  -15.8626 H   0  0  0  0  0  0  0  0  0  0  0  0
   -7.2653    5.8204  -19.1371 H   0  0  0  0  0  0  0  0  0  0  0  0
   -5.1580    4.5660  -17.9910 H   0  0  0  0  0  0  0  0  0  0  0  0
   -5.5580    1.6850  -13.5150 H   0  0  0  0  0  0  0  0  0  0  0  0
   -5.1985   -0.5594  -16.2778 H   0  0  0  0  0  0  0  0  0  0  0  0
   -5.0618   -3.0220  -16.0103 H   0  0  0  0  0  0  0  0  0  0  0  0
   -5.5992   -4.3861  -11.6793 H   0  0  0  0  0  0  0  0  0  0  0  0
   -5.4646   -6.0336  -12.3822 H   0  0  0  0  0  0  0  0  0  0  0  0
   -4.0411   -4.9382  -12.3822 H   0  0  0  0  0  0  0  0  0  0  0  0
   -4.9833   -6.9265  -13.7421 H   0  0  0  0  0  0  0  0  0  0  0  0
   -6.2575   -7.4287  -14.9819 H   0  0  0  0  0  0  0  0  0  0  0  0
   -3.5394   -5.2693  -15.2368 H   0  0  0  0  0  0  0  0  0  0  0  0
   -2.3571   -6.6576  -15.4722 H   0  0  0  0  0  0  0  0  0  0  0  0
   -3.7644   -5.0129  -17.6005 H   0  0  0  0  0  0  0  0  0  0  0  0
   -1.9690   -5.1791  -17.2239 H   0  0  0  0  0  0  0  0  0  0  0  0
   -1.0198   -7.3623  -17.3656 H   0  0  0  0  0  0  0  0  0  0  0  0
   -1.4094   -8.1781  -18.9178 H   0  0  0  0  0  0  0  0  0  0  0  0
   -0.8258   -6.4792  -18.9178 H   0  0  0  0  0  0  0  0  0  0  0  0
   -4.1689   -8.1927  -18.9651 H   0  0  0  0  0  0  0  0  0  0  0  0
   -3.1349   -8.6562  -17.5226 H   0  0  0  0  0  0  0  0  0  0  0  0
   -5.4755   -6.6989  -17.4555 H   0  0  0  0  0  0  0  0  0  0  0  0
   -5.5203   -8.4190  -16.9140 H   0  0  0  0  0  0  0  0  0  0  0  0
   -6.1868   -2.6360  -11.8677 H   0  0  0  0  0  0  0  0  0  0  0  0
   -6.3250   -0.1734  -12.1409 H   0  0  0  0  0  0  0  0  0  0  0  0
   -8.4115    3.1700  -12.9571 H   0  0  0  0  0  0  0  0  0  0  0  0
  -10.6572    2.5577  -12.0642 H   0  0  0  0  0  0  0  0  0  0  0  0
  -11.8535    0.5594  -12.9567 H   0  0  0  0  0  0  0  0  0  0  0  0
  -10.8004   -0.8383  -14.7324 H   0  0  0  0  0  0  0  0  0  0  0  0
   -8.5522   -0.2346  -15.6270 H   0  0  0  0  0  0  0  0  0  0  0  0
  1  2  1  0
  2  3  1  0
  3  4  2  0
  3  5  1  0
  5  6  1  0
  6  7  2  0
  7  8  1  0
  8  9  2  0
  9 10  1  0
  9 11  1  0
 11 12  1  0
 12 13  2  0
 12 14  1  0
 14 15  2  0
 15 16  1  0
 16 17  1  0
 17 18  1  0
 18 19  2  0
 19 20  1  0
 20 21  1  0
 21 22  1  0
 21 23  1  0
 23 24  2  0
 23 25  1  0
 25 26  1  0
 26 27  1  0
 27 28  1  0
 28 29  1  0
 29 30  1  0
 29 31  1  0
 31 32  1  0
 20 33  2  0
 33 34  1  0
 15 35  1  0
 35 36  2  0
 36 37  1  0
 37 38  2  0
 38 39  1  0
 39 40  2  0
 10  5  2  0
 34 17  2  0
 40 35  1  0
 14  8  1  0
 32 26  1  0
  1 41  1  0
  1 42  1  0
  1 43  1  0
  6 44  1  0
  7 45  1  0
 10 46  1  0
 11 47  1  0
 16 48  1  0
 18 49  1  0
 19 50  1  0
 22 51  1  0
 22 52  1  0
 22 53  1  0
 25 54  1  0
 25 55  1  0
 27 56  1  0
 27 57  1  0
 28 58  1  0
 28 59  1  0
 30 60  1  0
 30 61  1  0
 30 62  1  0
 31 63  1  0
 31 64  1  0
 32 65  1  0
 32 66  1  0
 33 67  1  0
 34 68  1  0
 36 69  1  0
 37 70  1  0
 38 71  1  0
 39 72  1  0
 40 73  1  0
M  END
>  <meeko>  (5) 
{"is_sidechain": false}

>  <vina_affinity_kcal_mol>  (5) 
-9.525

>  <pose_rank>  (5) 
5

$$$$

     RDKit          3D

 73 77  0  0  0  0  0  0  0  0999 V2000
  -10.2500    7.2670  -21.9490 C   0  0  0  0  0  0  0  0  0  0  0  0
   -9.4060    6.7150  -20.9370 O   0  0  0  0  0  0  0  0  0  0  0  0
   -9.3980    7.4230  -19.7810 C   0  0  0  0  0  0  0  0  0  0  0  0
   -9.2070    8.6240  -19.6770 O   0  0  0  0  0  0  0  0  0  0  0  0
   -9.6600    6.5340  -18.6150 C   0  0  0  0  0  0  0  0  0  0  0  0
   -8.7100    5.5980  -18.1530 C   0  0  0  0  0  0  0  0  0  0  0  0
   -8.9830    4.7720  -17.0510 C   0  0  0  0  0  0  0  0  0  0  0  0
  -10.2080    4.8880  -16.4180 C   0  0  0  0  0  0  0  0  0  0  0  0
  -11.1380    5.8230  -16.8910 C   0  0  0  0  0  0  0  0  0  0  0  0
  -10.8980    6.6490  -17.9730 C   0  0  0  0  0  0  0  0  0  0  0  0
  -12.3010    5.7910  -16.1320 N   0  0  0  0  0  0  0  0  0  0  0  0
  -12.2200    4.8450  -15.1290 C   0  0  0  0  0  0  0  0  0  0  0  0
  -13.0810    4.5600  -14.3160 O   0  0  0  0  0  0  0  0  0  0  0  0
  -10.8480    4.2240  -15.2650 C   0  0  0  0  0  0  0  0  0  0  0  0
  -10.4510    3.2480  -14.4150 C   0  0  0  0  0  0  0  0  0  0  0  0
  -11.2270    2.7880  -13.3410 N   0  0  0  0  0  0  0  0  0  0  0  0
  -11.1120    1.5170  -12.7330 C   0  0  0  0  0  0  0  0  0  0  0  0
  -10.4870    0.4450  -13.3660 C   0  0  0  0  0  0  0  0  0  0  0  0
  -10.4330   -0.8180  -12.7590 C   0  0  0  0  0  0  0  0  0  0  0  0
  -11.0030   -1.0540  -11.4970 C   0  0  0  0  0  0  0  0  0  0  0  0
  -10.9500   -2.3690  -10.8960 N   0  0  0  0  0  0  0  0  0  0  0  0
  -10.0390   -2.5390   -9.7600 C   0  0  0  0  0  0  0  0  0  0  0  0
  -11.8100   -3.4150  -11.3120 C   0  0  0  0  0  0  0  0  0  0  0  0
  -11.7930   -3.9110  -12.4410 O   0  0  0  0  0  0  0  0  0  0  0  0
  -12.8190   -3.9170  -10.2480 C   0  0  0  0  0  0  0  0  0  0  0  0
  -12.3300   -4.9690   -9.3370 N   0  0  0  0  0  0  0  0  0  0  0  0
  -12.5830   -6.3430   -9.8040 C   0  0  0  0  0  0  0  0  0  0  0  0
  -13.2810   -7.2680   -8.7740 C   0  0  0  0  0  0  0  0  0  0  0  0
  -12.6980   -7.2590   -7.4190 N   0  0  0  0  0  0  0  0  0  0  0  0
  -11.6500   -8.2650   -7.2730 C   0  0  0  0  0  0  0  0  0  0  0  0
  -12.1950   -5.9190   -7.0520 C   0  0  0  0  0  0  0  0  0  0  0  0
  -12.7310   -4.7700   -7.9370 C   0  0  0  0  0  0  0  0  0  0  0  0
  -11.6350    0.0290  -10.8760 C   0  0  0  0  0  0  0  0  0  0  0  0
  -11.6910    1.2930  -11.4830 C   0  0  0  0  0  0  0  0  0  0  0  0
   -9.1080    2.6540  -14.5890 C   0  0  0  0  0  0  0  0  0  0  0  0
   -8.8660    1.7290  -15.6150 C   0  0  0  0  0  0  0  0  0  0  0  0
   -7.5940    1.1780  -15.7780 C   0  0  0  0  0  0  0  0  0  0  0  0
   -6.5580    1.5470  -14.9210 C   0  0  0  0  0  0  0  0  0  0  0  0
   -6.7910    2.4630  -13.8950 C   0  0  0  0  0  0  0  0  0  0  0  0
   -8.0620    3.0150  -13.7280 C   0  0  0  0  0  0  0  0  0  0  0  0
  -11.0814    7.8108  -21.4767 H   0  0  0  0  0  0  0  0  0  0  0  0
   -9.6676    7.9593  -22.5748 H   0  0  0  0  0  0  0  0  0  0  0  0
  -10.6508    6.4560  -22.5748 H   0  0  0  0  0  0  0  0  0  0  0  0
   -7.7399    5.5143  -18.6647 H   0  0  0  0  0  0  0  0  0  0  0  0
   -8.2365    4.0457  -16.6972 H   0  0  0  0  0  0  0  0  0  0  0  0
  -11.6532    7.3710  -18.3171 H   0  0  0  0  0  0  0  0  0  0  0  0
  -13.1210    6.3610  -16.2780 H   0  0  0  0  0  0  0  0  0  0  0  0
  -12.2160    3.0330  -13.4730 H   0  0  0  0  0  0  0  0  0  0  0  0
  -10.0295    0.5912  -14.3556 H   0  0  0  0  0  0  0  0  0  0  0  0
   -9.9318   -1.6445  -13.2842 H   0  0  0  0  0  0  0  0  0  0  0  0
  -10.6011   -2.4341   -8.8203 H   0  0  0  0  0  0  0  0  0  0  0  0
   -9.5809   -3.5381   -9.8037 H   0  0  0  0  0  0  0  0  0  0  0  0
   -9.2514   -1.7723   -9.8037 H   0  0  0  0  0  0  0  0  0  0  0  0
  -13.1187   -3.0541   -9.6352 H   0  0  0  0  0  0  0  0  0  0  0  0
  -13.6429   -4.3755  -10.8145 H   0  0  0  0  0  0  0  0  0  0  0  0
  -13.2201   -6.2872  -10.6990 H   0  0  0  0  0  0  0  0  0  0  0  0
  -11.5959   -6.7883   -9.9971 H   0  0  0  0  0  0  0  0  0  0  0  0
  -14.3321   -6.9540   -8.6934 H   0  0  0  0  0  0  0  0  0  0  0  0
  -13.1539   -8.2932   -9.1520 H   0  0  0  0  0  0  0  0  0  0  0  0
  -11.4616   -8.4458   -6.2044 H   0  0  0  0  0  0  0  0  0  0  0  0
  -11.9714   -9.2015   -7.7523 H   0  0  0  0  0  0  0  0  0  0  0  0
  -10.7274   -7.9056   -7.7523 H   0  0  0  0  0  0  0  0  0  0  0  0
  -12.4862   -5.7157   -6.0109 H   0  0  0  0  0  0  0  0  0  0  0  0
  -11.1047   -5.9431   -7.1960 H   0  0  0  0  0  0  0  0  0  0  0  0
  -13.8290   -4.7470   -7.8747 H   0  0  0  0  0  0  0  0  0  0  0  0
  -12.3109   -3.8188   -7.5782 H   0  0  0  0  0  0  0  0  0  0  0  0
  -12.0988   -0.1138   -9.8888 H   0  0  0  0  0  0  0  0  0  0  0  0
  -12.1991    2.1201  -10.9656 H   0  0  0  0  0  0  0  0  0  0  0  0
   -9.6812    1.4368  -16.2934 H   0  0  0  0  0  0  0  0  0  0  0  0
   -7.4087    0.4520  -16.5833 H   0  0  0  0  0  0  0  0  0  0  0  0
   -5.5551    1.1151  -15.0541 H   0  0  0  0  0  0  0  0  0  0  0  0
   -5.9732    2.7502  -13.2177 H   0  0  0  0  0  0  0  0  0  0  0  0
   -8.2438    3.7362  -12.9176 H   0  0  0  0  0  0  0  0  0  0  0  0
  1  2  1  0
  2  3  1  0
  3  4  2  0
  3  5  1  0
  5  6  1  0
  6  7  2  0
  7  8  1  0
  8  9  2  0
  9 10  1  0
  9 11  1  0
 11 12  1  0
 12 13  2  0
 12 14  1  0
 14 15  2  0
 15 16  1  0
 16 17  1  0
 17 18  1  0
 18 19  2  0
 19 20  1  0
 20 21  1  0
 21 22  1  0
 21 23  1  0
 23 24  2  0
 23 25  1  0
 25 26  1  0
 26 27  1  0
 27 28  1  0
 28 29  1  0
 29 30  1  0
 29 31  1  0
 31 32  1  0
 20 33  2  0
 33 34  1  0
 15 35  1  0
 35 36  2  0
 36 37  1  0
 37 38  2  0
 38 39  1  0
 39 40  2  0
 10  5  2  0
 34 17  2  0
 40 35  1  0
 14  8  1  0
 32 26  1  0
  1 41  1  0
  1 42  1  0
  1 43  1  0
  6 44  1  0
  7 45  1  0
 10 46  1  0
 11 47  1  0
 16 48  1  0
 18 49  1  0
 19 50  1  0
 22 51  1  0
 22 52  1  0
 22 53  1  0
 25 54  1  0
 25 55  1  0
 27 56  1  0
 27 57  1  0
 28 58  1  0
 28 59  1  0
 30 60  1  0
 30 61  1  0
 30 62  1  0
 31 63  1  0
 31 64  1  0
 32 65  1  0
 32 66  1  0
 33 67  1  0
 34 68  1  0
 36 69  1  0
 37 70  1  0
 38 71  1  0
 39 72  1  0
 40 73  1  0
M  END
>  <meeko>  (6) 
{"is_sidechain": false}

>  <vina_affinity_kcal_mol>  (6) 
-9.515

>  <pose_rank>  (6) 
6

$$$$

     RDKit          3D

 73 77  0  0  0  0  0  0  0  0999 V2000
  -10.0510    7.3920  -22.2270 C   0  0  0  0  0  0  0  0  0  0  0  0
  -10.5640    8.1050  -21.0990 O   0  0  0  0  0  0  0  0  0  0  0  0
   -9.6410    8.3520  -20.1380 C   0  0  0  0  0  0  0  0  0  0  0  0
   -8.9290    9.3420  -20.0660 O   0  0  0  0  0  0  0  0  0  0  0  0
   -9.5950    7.2400  -19.1500 C   0  0  0  0  0  0  0  0  0  0  0  0
   -8.5940    6.2450  -19.1800 C   0  0  0  0  0  0  0  0  0  0  0  0
   -8.5740    5.2070  -18.2350 C   0  0  0  0  0  0  0  0  0  0  0  0
   -9.5600    5.1700  -17.2650 C   0  0  0  0  0  0  0  0  0  0  0  0
  -10.5460    6.1660  -17.2510 C   0  0  0  0  0  0  0  0  0  0  0  0
  -10.5910    7.2000  -18.1670 C   0  0  0  0  0  0  0  0  0  0  0  0
  -11.4430    5.9590  -16.2100 N   0  0  0  0  0  0  0  0  0  0  0  0
  -11.1180    4.8300  -15.4850 C   0  0  0  0  0  0  0  0  0  0  0  0
  -11.7210    4.3700  -14.5310 O   0  0  0  0  0  0  0  0  0  0  0  0
   -9.8710    4.2740  -16.1330 C   0  0  0  0  0  0  0  0  0  0  0  0
   -9.2890    3.1520  -15.6490 C   0  0  0  0  0  0  0  0  0  0  0  0
   -9.7440    2.4680  -14.5110 N   0  0  0  0  0  0  0  0  0  0  0  0
   -9.0460    1.4360  -13.8430 C   0  0  0  0  0  0  0  0  0  0  0  0
   -7.6880    1.5260  -13.5520 C   0  0  0  0  0  0  0  0  0  0  0  0
   -7.0120    0.4650  -12.9330 C   0  0  0  0  0  0  0  0  0  0  0  0
   -7.6710   -0.7260  -12.5840 C   0  0  0  0  0  0  0  0  0  0  0  0
   -6.9510   -1.8150  -11.9610 N   0  0  0  0  0  0  0  0  0  0  0  0
   -7.1610   -2.0080  -10.5240 C   0  0  0  0  0  0  0  0  0  0  0  0
   -6.1640   -2.7190  -12.7170 C   0  0  0  0  0  0  0  0  0  0  0  0
   -6.6130   -3.7250  -13.2720 O   0  0  0  0  0  0  0  0  0  0  0  0
   -4.6530   -2.3800  -12.8070 C   0  0  0  0  0  0  0  0  0  0  0  0
   -4.0670   -2.3880  -14.1600 N   0  0  0  0  0  0  0  0  0  0  0  0
   -2.5930   -2.3950  -14.1830 C   0  0  0  0  0  0  0  0  0  0  0  0
   -1.9470   -1.3000  -15.0700 C   0  0  0  0  0  0  0  0  0  0  0  0
   -2.5060   -1.1750  -16.4290 N   0  0  0  0  0  0  0  0  0  0  0  0
   -1.8120   -2.0380  -17.3820 C   0  0  0  0  0  0  0  0  0  0  0  0
   -3.9600   -1.4380  -16.4460 C   0  0  0  0  0  0  0  0  0  0  0  0
   -4.6370   -1.3750  -15.0570 C   0  0  0  0  0  0  0  0  0  0  0  0
   -9.0340   -0.8070  -12.8910 C   0  0  0  0  0  0  0  0  0  0  0  0
   -9.7110    0.2550  -13.5110 C   0  0  0  0  0  0  0  0  0  0  0  0
   -8.0800    2.6290  -16.3190 C   0  0  0  0  0  0  0  0  0  0  0  0
   -8.1690    1.5470  -17.2070 C   0  0  0  0  0  0  0  0  0  0  0  0
   -7.0240    1.0630  -17.8430 C   0  0  0  0  0  0  0  0  0  0  0  0
   -5.7870    1.6570  -17.5980 C   0  0  0  0  0  0  0  0  0  0  0  0
   -5.6880    2.7300  -16.7130 C   0  0  0  0  0  0  0  0  0  0  0  0
   -6.8300    3.2150  -16.0740 C   0  0  0  0  0  0  0  0  0  0  0  0
   -9.4415    6.5449  -21.8791 H   0  0  0  0  0  0  0  0  0  0  0  0
  -10.8874    7.0167  -22.8349 H   0  0  0  0  0  0  0  0  0  0  0  0
   -9.4293    8.0658  -22.8349 H   0  0  0  0  0  0  0  0  0  0  0  0
   -7.8164    6.2837  -19.9571 H   0  0  0  0  0  0  0  0  0  0  0  0
   -7.7888    4.4372  -18.2652 H   0  0  0  0  0  0  0  0  0  0  0  0
  -11.3811    7.9642  -18.1252 H   0  0  0  0  0  0  0  0  0  0  0  0
  -12.2450    6.5330  -15.9960 H   0  0  0  0  0  0  0  0  0  0  0  0
  -10.7380    2.2260  -14.6030 H   0  0  0  0  0  0  0  0  0  0  0  0
   -7.1374    2.4423  -13.8112 H   0  0  0  0  0  0  0  0  0  0  0  0
   -5.9387    0.5675  -12.7151 H   0  0  0  0  0  0  0  0  0  0  0  0
   -6.4646   -1.3680   -9.9624 H   0  0  0  0  0  0  0  0  0  0  0  0
   -8.1958   -1.7392  -10.2653 H   0  0  0  0  0  0  0  0  0  0  0  0
   -6.9803   -3.0618  -10.2653 H   0  0  0  0  0  0  0  0  0  0  0  0
   -4.5080   -1.3751  -12.3836 H   0  0  0  0  0  0  0  0  0  0  0  0
   -4.1368   -3.1801  -12.2562 H   0  0  0  0  0  0  0  0  0  0  0  0
   -2.2349   -2.2547  -13.1524 H   0  0  0  0  0  0  0  0  0  0  0  0
   -2.2967   -3.3598  -14.6205 H   0  0  0  0  0  0  0  0  0  0  0  0
   -2.0730   -0.3330  -14.5610 H   0  0  0  0  0  0  0  0  0  0  0  0
   -0.8960   -1.5972  -15.2009 H   0  0  0  0  0  0  0  0  0  0  0  0
   -1.2139   -2.7817  -16.8351 H   0  0  0  0  0  0  0  0  0  0  0  0
   -2.5497   -2.5538  -18.0142 H   0  0  0  0  0  0  0  0  0  0  0  0
   -1.1499   -1.4282  -18.0142 H   0  0  0  0  0  0  0  0  0  0  0  0
   -4.4374   -0.6896  -17.0956 H   0  0  0  0  0  0  0  0  0  0  0  0
   -4.0885   -2.4676  -16.8114 H   0  0  0  0  0  0  0  0  0  0  0  0
   -4.4791   -0.3769  -14.6224 H   0  0  0  0  0  0  0  0  0  0  0  0
   -5.7128   -1.5711  -15.1767 H   0  0  0  0  0  0  0  0  0  0  0  0
   -9.5876   -1.7240  -12.6407 H   0  0  0  0  0  0  0  0  0  0  0  0
  -10.7825    0.1546  -13.7387 H   0  0  0  0  0  0  0  0  0  0  0  0
   -9.1445    1.0779  -17.4032 H   0  0  0  0  0  0  0  0  0  0  0  0
   -7.0982    0.2130  -18.5373 H   0  0  0  0  0  0  0  0  0  0  0  0
   -4.8867    1.2784  -18.1041 H   0  0  0  0  0  0  0  0  0  0  0  0
   -4.7099    3.1941  -16.5185 H   0  0  0  0  0  0  0  0  0  0  0  0
   -6.7491    4.0606  -15.3752 H   0  0  0  0  0  0  0  0  0  0  0  0
  1  2  1  0
  2  3  1  0
  3  4  2  0
  3  5  1  0
  5  6  1  0
  6  7  2  0
  7  8  1  0
  8  9  2  0
  9 10  1  0
  9 11  1  0
 11 12  1  0
 12 13  2  0
 12 14  1  0
 14 15  2  0
 15 16  1  0
 16 17  1  0
 17 18  1  0
 18 19  2  0
 19 20  1  0
 20 21  1  0
 21 22  1  0
 21 23  1  0
 23 24  2  0
 23 25  1  0
 25 26  1  0
 26 27  1  0
 27 28  1  0
 28 29  1  0
 29 30  1  0
 29 31  1  0
 31 32  1  0
 20 33  2  0
 33 34  1  0
 15 35  1  0
 35 36  2  0
 36 37  1  0
 37 38  2  0
 38 39  1  0
 39 40  2  0
 10  5  2  0
 34 17  2  0
 40 35  1  0
 14  8  1  0
 32 26  1  0
  1 41  1  0
  1 42  1  0
  1 43  1  0
  6 44  1  0
  7 45  1  0
 10 46  1  0
 11 47  1  0
 16 48  1  0
 18 49  1  0
 19 50  1  0
 22 51  1  0
 22 52  1  0
 22 53  1  0
 25 54  1  0
 25 55  1  0
 27 56  1  0
 27 57  1  0
 28 58  1  0
 28 59  1  0
 30 60  1  0
 30 61  1  0
 30 62  1  0
 31 63  1  0
 31 64  1  0
 32 65  1  0
 32 66  1  0
 33 67  1  0
 34 68  1  0
 36 69  1  0
 37 70  1  0
 38 71  1  0
 39 72  1  0
 40 73  1  0
M  END
>  <meeko>  (7) 
{"is_sidechain": false}

>  <vina_affinity_kcal_mol>  (7) 
-9.417

>  <pose_rank>  (7) 
7

$$$$

     RDKit          3D

 73 77  0  0  0  0  0  0  0  0999 V2000
  -10.0100    7.3530  -21.9050 C   0  0  0  0  0  0  0  0  0  0  0  0
   -9.4680    6.6170  -20.8060 O   0  0  0  0  0  0  0  0  0  0  0  0
   -9.4250    7.3150  -19.6450 C   0  0  0  0  0  0  0  0  0  0  0  0
   -9.1850    8.5070  -19.5340 O   0  0  0  0  0  0  0  0  0  0  0  0
   -9.7140    6.4290  -18.4850 C   0  0  0  0  0  0  0  0  0  0  0  0
   -8.7820    5.4810  -18.0090 C   0  0  0  0  0  0  0  0  0  0  0  0
   -9.0810    4.6570  -16.9120 C   0  0  0  0  0  0  0  0  0  0  0  0
  -10.3140    4.7870  -16.2970 C   0  0  0  0  0  0  0  0  0  0  0  0
  -11.2260    5.7330  -16.7830 C   0  0  0  0  0  0  0  0  0  0  0  0
  -10.9600    6.5570  -17.8600 C   0  0  0  0  0  0  0  0  0  0  0  0
  -12.4000    5.7140  -16.0410 N   0  0  0  0  0  0  0  0  0  0  0  0
  -12.3450    4.7660  -15.0380 C   0  0  0  0  0  0  0  0  0  0  0  0
  -13.2210    4.4910  -14.2380 O   0  0  0  0  0  0  0  0  0  0  0  0
  -10.9790    4.1300  -15.1540 C   0  0  0  0  0  0  0  0  0  0  0  0
  -10.6050    3.1490  -14.3000 C   0  0  0  0  0  0  0  0  0  0  0  0
  -11.4020    2.6960  -13.2380 N   0  0  0  0  0  0  0  0  0  0  0  0
  -11.2730    1.4460  -12.5920 C   0  0  0  0  0  0  0  0  0  0  0  0
  -10.6930    0.3440  -13.2160 C   0  0  0  0  0  0  0  0  0  0  0  0
  -10.6240   -0.8970  -12.5680 C   0  0  0  0  0  0  0  0  0  0  0  0
  -11.1340   -1.0820  -11.2710 C   0  0  0  0  0  0  0  0  0  0  0  0
  -11.0670   -2.3750  -10.6270 N   0  0  0  0  0  0  0  0  0  0  0  0
  -11.8320   -3.4610  -11.2470 C   0  0  0  0  0  0  0  0  0  0  0  0
  -10.2230   -2.6120   -9.5140 C   0  0  0  0  0  0  0  0  0  0  0  0
  -10.5610   -3.2580   -8.5190 O   0  0  0  0  0  0  0  0  0  0  0  0
   -8.8060   -1.9880   -9.6010 C   0  0  0  0  0  0  0  0  0  0  0  0
   -7.8420   -2.6900  -10.4690 N   0  0  0  0  0  0  0  0  0  0  0  0
   -6.7670   -3.3890   -9.7420 C   0  0  0  0  0  0  0  0  0  0  0  0
   -5.3300   -3.0590  -10.2200 C   0  0  0  0  0  0  0  0  0  0  0  0
   -5.1200   -3.1190  -11.6790 N   0  0  0  0  0  0  0  0  0  0  0  0
   -4.7160   -4.4520  -12.1150 C   0  0  0  0  0  0  0  0  0  0  0  0
   -6.3140   -2.6630  -12.4210 C   0  0  0  0  0  0  0  0  0  0  0  0
   -7.3280   -1.8640  -11.5700 C   0  0  0  0  0  0  0  0  0  0  0  0
  -11.7220    0.0310  -10.6590 C   0  0  0  0  0  0  0  0  0  0  0  0
  -11.7920    1.2740  -11.3070 C   0  0  0  0  0  0  0  0  0  0  0  0
   -9.2670    2.5390  -14.4540 C   0  0  0  0  0  0  0  0  0  0  0  0
   -9.0350    1.5720  -15.4430 C   0  0  0  0  0  0  0  0  0  0  0  0
   -7.7670    1.0070  -15.5890 C   0  0  0  0  0  0  0  0  0  0  0  0
   -6.7260    1.4030  -14.7510 C   0  0  0  0  0  0  0  0  0  0  0  0
   -6.9490    2.3600  -13.7620 C   0  0  0  0  0  0  0  0  0  0  0  0
   -8.2150    2.9270  -13.6120 C   0  0  0  0  0  0  0  0  0  0  0  0
  -10.6218    8.1838  -21.5237 H   0  0  0  0  0  0  0  0  0  0  0  0
   -9.1894    7.7533  -22.5185 H   0  0  0  0  0  0  0  0  0  0  0  0
  -10.6358    6.6882  -22.5185 H   0  0  0  0  0  0  0  0  0  0  0  0
   -7.8052    5.3864  -18.5059 H   0  0  0  0  0  0  0  0  0  0  0  0
   -8.3485    3.9215  -16.5480 H   0  0  0  0  0  0  0  0  0  0  0  0
  -11.7017    7.2882  -18.2139 H   0  0  0  0  0  0  0  0  0  0  0  0
  -13.2110    6.2930  -16.1990 H   0  0  0  0  0  0  0  0  0  0  0  0
  -12.3930    2.9100  -13.4070 H   0  0  0  0  0  0  0  0  0  0  0  0
  -10.2834    0.4491  -14.2315 H   0  0  0  0  0  0  0  0  0  0  0  0
  -10.1590   -1.7478  -13.0875 H   0  0  0  0  0  0  0  0  0  0  0  0
  -12.2759   -4.0912  -10.4623 H   0  0  0  0  0  0  0  0  0  0  0  0
  -12.6313   -3.0361  -11.8720 H   0  0  0  0  0  0  0  0  0  0  0  0
  -11.1628   -4.0706  -11.8720 H   0  0  0  0  0  0  0  0  0  0  0  0
   -8.9134   -0.9607   -9.9794 H   0  0  0  0  0  0  0  0  0  0  0  0
   -8.3909   -2.0524   -8.5844 H   0  0  0  0  0  0  0  0  0  0  0  0
   -6.8431   -3.1191   -8.6784 H   0  0  0  0  0  0  0  0  0  0  0  0
   -6.9151   -4.4622   -9.9323 H   0  0  0  0  0  0  0  0  0  0  0  0
   -5.0856   -2.0407   -9.8834 H   0  0  0  0  0  0  0  0  0  0  0  0
   -4.6807   -3.8347   -9.7878 H   0  0  0  0  0  0  0  0  0  0  0  0
   -4.5246   -5.0834  -11.2348 H   0  0  0  0  0  0  0  0  0  0  0  0
   -5.5190   -4.8991  -12.7194 H   0  0  0  0  0  0  0  0  0  0  0  0
   -3.7999   -4.3781  -12.7194 H   0  0  0  0  0  0  0  0  0  0  0  0
   -5.9798   -2.0218  -13.2500 H   0  0  0  0  0  0  0  0  0  0  0  0
   -6.8360   -3.5688  -12.7631 H   0  0  0  0  0  0  0  0  0  0  0  0
   -6.8303   -0.9757  -11.1539 H   0  0  0  0  0  0  0  0  0  0  0  0
   -8.1698   -1.5628  -12.2108 H   0  0  0  0  0  0  0  0  0  0  0  0
  -12.1391   -0.0709   -9.6463 H   0  0  0  0  0  0  0  0  0  0  0  0
  -12.2630    2.1259  -10.7947 H   0  0  0  0  0  0  0  0  0  0  0  0
   -9.8548    1.2578  -16.1057 H   0  0  0  0  0  0  0  0  0  0  0  0
   -7.5892    0.2488  -16.3659 H   0  0  0  0  0  0  0  0  0  0  0  0
   -5.7264    0.9595  -14.8702 H   0  0  0  0  0  0  0  0  0  0  0  0
   -6.1266    2.6682  -13.0997 H   0  0  0  0  0  0  0  0  0  0  0  0
   -8.3885    3.6812  -12.8303 H   0  0  0  0  0  0  0  0  0  0  0  0
  1  2  1  0
  2  3  1  0
  3  4  2  0
  3  5  1  0
  5  6  1  0
  6  7  2  0
  7  8  1  0
  8  9  2  0
  9 10  1  0
  9 11  1  0
 11 12  1  0
 12 13  2  0
 12 14  1  0
 14 15  2  0
 15 16  1  0
 16 17  1  0
 17 18  1  0
 18 19  2  0
 19 20  1  0
 20 21  1  0
 21 22  1  0
 21 23  1  0
 23 24  2  0
 23 25  1  0
 25 26  1  0
 26 27  1  0
 27 28  1  0
 28 29  1  0
 29 30  1  0
 29 31  1  0
 31 32  1  0
 20 33  2  0
 33 34  1  0
 15 35  1  0
 35 36  2  0
 36 37  1  0
 37 38  2  0
 38 39  1  0
 39 40  2  0
 10  5  2  0
 34 17  2  0
 40 35  1  0
 14  8  1  0
 32 26  1  0
  1 41  1  0
  1 42  1  0
  1 43  1  0
  6 44  1  0
  7 45  1  0
 10 46  1  0
 11 47  1  0
 16 48  1  0
 18 49  1  0
 19 50  1  0
 22 51  1  0
 22 52  1  0
 22 53  1  0
 25 54  1  0
 25 55  1  0
 27 56  1  0
 27 57  1  0
 28 58  1  0
 28 59  1  0
 30 60  1  0
 30 61  1  0
 30 62  1  0
 31 63  1  0
 31 64  1  0
 32 65  1  0
 32 66  1  0
 33 67  1  0
 34 68  1  0
 36 69  1  0
 37 70  1  0
 38 71  1  0
 39 72  1  0
 40 73  1  0
M  END
>  <meeko>  (8) 
{"is_sidechain": false}

>  <vina_affinity_kcal_mol>  (8) 
-9.304

>  <pose_rank>  (8) 
8

$$$$

     RDKit          3D

 73 77  0  0  0  0  0  0  0  0999 V2000
   -9.3860    8.9430  -19.7530 C   0  0  0  0  0  0  0  0  0  0  0  0
  -10.0730    7.8010  -19.2380 O   0  0  0  0  0  0  0  0  0  0  0  0
   -9.6520    6.6240  -19.7620 C   0  0  0  0  0  0  0  0  0  0  0  0
   -9.6430    6.3290  -20.9470 O   0  0  0  0  0  0  0  0  0  0  0  0
   -9.1880    5.7030  -18.6890 C   0  0  0  0  0  0  0  0  0  0  0  0
  -10.0820    5.0820  -17.7890 C   0  0  0  0  0  0  0  0  0  0  0  0
   -9.6170    4.2170  -16.7860 C   0  0  0  0  0  0  0  0  0  0  0  0
   -8.2570    3.9800  -16.6870 C   0  0  0  0  0  0  0  0  0  0  0  0
   -7.3860    4.6050  -17.5880 C   0  0  0  0  0  0  0  0  0  0  0  0
   -7.8130    5.4610  -18.5860 C   0  0  0  0  0  0  0  0  0  0  0  0
   -6.0680    4.2470  -17.3310 N   0  0  0  0  0  0  0  0  0  0  0  0
   -5.9840    3.3820  -16.2580 C   0  0  0  0  0  0  0  0  0  0  0  0
   -4.9720    2.9080  -15.7740 O   0  0  0  0  0  0  0  0  0  0  0  0
   -7.4070    3.1610  -15.8000 C   0  0  0  0  0  0  0  0  0  0  0  0
   -7.6710    2.3470  -14.7510 C   0  0  0  0  0  0  0  0  0  0  0  0
   -6.6880    1.6210  -14.0630 N   0  0  0  0  0  0  0  0  0  0  0  0
   -6.2280    0.3310  -14.4120 C   0  0  0  0  0  0  0  0  0  0  0  0
   -6.6720   -0.3320  -15.5520 C   0  0  0  0  0  0  0  0  0  0  0  0
   -6.2370   -1.6320  -15.8460 C   0  0  0  0  0  0  0  0  0  0  0  0
   -5.3410   -2.3170  -15.0070 C   0  0  0  0  0  0  0  0  0  0  0  0
   -4.9170   -3.6640  -15.3190 N   0  0  0  0  0  0  0  0  0  0  0  0
   -3.7370   -3.8020  -16.1770 C   0  0  0  0  0  0  0  0  0  0  0  0
   -5.5440   -4.7960  -14.7430 C   0  0  0  0  0  0  0  0  0  0  0  0
   -6.6180   -5.2610  -15.1330 O   0  0  0  0  0  0  0  0  0  0  0  0
   -4.7980   -5.4400  -13.5460 C   0  0  0  0  0  0  0  0  0  0  0  0
   -5.5490   -5.5150  -12.2790 N   0  0  0  0  0  0  0  0  0  0  0  0
   -5.5570   -4.2620  -11.5030 C   0  0  0  0  0  0  0  0  0  0  0  0
   -5.1290   -4.4060  -10.0200 C   0  0  0  0  0  0  0  0  0  0  0  0
   -5.7810   -5.5020   -9.2780 N   0  0  0  0  0  0  0  0  0  0  0  0
   -7.0210   -5.0650   -8.6430 C   0  0  0  0  0  0  0  0  0  0  0  0
   -6.0180   -6.6780  -10.1420 C   0  0  0  0  0  0  0  0  0  0  0  0
   -5.2030   -6.6810  -11.4560 C   0  0  0  0  0  0  0  0  0  0  0  0
   -4.9100   -1.6430  -13.8590 C   0  0  0  0  0  0  0  0  0  0  0  0
   -5.3460   -0.3410  -13.5640 C   0  0  0  0  0  0  0  0  0  0  0  0
   -9.0750    2.1690  -14.3220 C   0  0  0  0  0  0  0  0  0  0  0  0
   -9.7690    0.9910  -14.6290 C   0  0  0  0  0  0  0  0  0  0  0  0
  -11.0920    0.8250  -14.2140 C   0  0  0  0  0  0  0  0  0  0  0  0
  -11.7260    1.8340  -13.4890 C   0  0  0  0  0  0  0  0  0  0  0  0
  -11.0450    3.0110  -13.1830 C   0  0  0  0  0  0  0  0  0  0  0  0
   -9.7230    3.1800  -13.5980 C   0  0  0  0  0  0  0  0  0  0  0  0
   -9.0170    9.5564  -18.9178 H   0  0  0  0  0  0  0  0  0  0  0  0
   -8.5364    8.6129  -20.3689 H   0  0  0  0  0  0  0  0  0  0  0  0
  -10.0757    9.5389  -20.3689 H   0  0  0  0  0  0  0  0  0  0  0  0
  -11.1607    5.2795  -17.8755 H   0  0  0  0  0  0  0  0  0  0  0  0
  -10.3210    3.7360  -16.0910 H   0  0  0  0  0  0  0  0  0  0  0  0
   -7.0980    5.9350  -19.2745 H   0  0  0  0  0  0  0  0  0  0  0  0
   -5.2560    4.5710  -17.8350 H   0  0  0  0  0  0  0  0  0  0  0  0
   -6.8280    1.6890  -13.0470 H   0  0  0  0  0  0  0  0  0  0  0  0
   -7.3746    0.1712  -16.2325 H   0  0  0  0  0  0  0  0  0  0  0  0
   -6.6060   -2.1282  -16.7557 H   0  0  0  0  0  0  0  0  0  0  0  0
   -2.8387   -3.9071  -15.5509 H   0  0  0  0  0  0  0  0  0  0  0  0
   -3.8476   -4.6933  -16.8121 H   0  0  0  0  0  0  0  0  0  0  0  0
   -3.6390   -2.9092  -16.8121 H   0  0  0  0  0  0  0  0  0  0  0  0
   -4.5215   -6.4649  -13.8342 H   0  0  0  0  0  0  0  0  0  0  0  0
   -3.9404   -4.7817  -13.3431 H   0  0  0  0  0  0  0  0  0  0  0  0
   -4.8688   -3.5551  -11.9895 H   0  0  0  0  0  0  0  0  0  0  0  0
   -6.6011   -3.9162  -11.4890 H   0  0  0  0  0  0  0  0  0  0  0  0
   -4.0428   -4.5782   -9.9952 H   0  0  0  0  0  0  0  0  0  0  0  0
   -5.4399   -3.4755   -9.5225 H   0  0  0  0  0  0  0  0  0  0  0  0
   -6.9070   -5.1052   -7.5497 H   0  0  0  0  0  0  0  0  0  0  0  0
   -7.2466   -4.0332   -8.9505 H   0  0  0  0  0  0  0  0  0  0  0  0
   -7.8436   -5.7274   -8.9505 H   0  0  0  0  0  0  0  0  0  0  0  0
   -5.7554   -7.5817   -9.5724 H   0  0  0  0  0  0  0  0  0  0  0  0
   -7.0788   -6.6459  -10.4311 H   0  0  0  0  0  0  0  0  0  0  0  0
   -4.1299   -6.6492  -11.2164 H   0  0  0  0  0  0  0  0  0  0  0  0
   -5.4392   -7.5961  -12.0188 H   0  0  0  0  0  0  0  0  0  0  0  0
   -4.2133   -2.1448  -13.1714 H   0  0  0  0  0  0  0  0  0  0  0  0
   -4.9871    0.1567  -12.6510 H   0  0  0  0  0  0  0  0  0  0  0  0
   -9.2696    0.1938  -15.1992 H   0  0  0  0  0  0  0  0  0  0  0  0
  -11.6337   -0.1006  -14.4586 H   0  0  0  0  0  0  0  0  0  0  0  0
  -12.7664    1.7004  -13.1578 H   0  0  0  0  0  0  0  0  0  0  0  0
  -11.5492    3.8065  -12.6146 H   0  0  0  0  0  0  0  0  0  0  0  0
   -9.1875    4.1099  -13.3561 H   0  0  0  0  0  0  0  0  0  0  0  0
  1  2  1  0
  2  3  1  0
  3  4  2  0
  3  5  1  0
  5  6  1  0
  6  7  2  0
  7  8  1  0
  8  9  2  0
  9 10  1  0
  9 11  1  0
 11 12  1  0
 12 13  2  0
 12 14  1  0
 14 15  2  0
 15 16  1  0
 16 17  1  0
 17 18  1  0
 18 19  2  0
 19 20  1  0
 20 21  1  0
 21 22  1  0
 21 23  1  0
 23 24  2  0
 23 25  1  0
 25 26  1  0
 26 27  1  0
 27 28  1  0
 28 29  1  0
 29 30  1  0
 29 31  1  0
 31 32  1  0
 20 33  2  0
 33 34  1  0
 15 35  1  0
 35 36  2  0
 36 37  1  0
 37 38  2  0
 38 39  1  0
 39 40  2  0
 10  5  2  0
 34 17  2  0
 40 35  1  0
 14  8  1  0
 32 26  1  0
  1 41  1  0
  1 42  1  0
  1 43  1  0
  6 44  1  0
  7 45  1  0
 10 46  1  0
 11 47  1  0
 16 48  1  0
 18 49  1  0
 19 50  1  0
 22 51  1  0
 22 52  1  0
 22 53  1  0
 25 54  1  0
 25 55  1  0
 27 56  1  0
 27 57  1  0
 28 58  1  0
 28 59  1  0
 30 60  1  0
 30 61  1  0
 30 62  1  0
 31 63  1  0
 31 64  1  0
 32 65  1  0
 32 66  1  0
 33 67  1  0
 34 68  1  0
 36 69  1  0
 37 70  1  0
 38 71  1  0
 39 72  1  0
 40 73  1  0
M  END
>  <meeko>  (9) 
{"is_sidechain": false}

>  <vina_affinity_kcal_mol>  (9) 
-9.298

>  <pose_rank>  (9) 
9

$$$$
