
     RDKit          3D

 56 58  0  0  0  0  0  0  0  0999 V2000
   -5.5141    0.5080   -2.8677 C   0  0  0  0  0  0  0  0  0  0  0  0
   -6.2935    0.9076   -1.6204 C   0  0  0  0  0  0  0  0  0  0  0  0
   -5.8942    0.1677   -0.4137 N   0  0  0  0  0  0  0  0  0  0  0  0
   -6.8705    0.3323    0.6760 C   0  0  0  0  0  0  0  0  0  0  0  0
   -7.0635    1.7545    1.1974 C   0  0  0  0  0  0  0  0  0  0  0  0
   -4.5175    0.4522    0.0243 C   0  0  0  0  0  0  0  0  0  0  0  0
   -3.5453   -0.6728   -0.3675 C   0  0  0  0  0  0  0  0  0  0  0  0
   -2.1811   -0.3547    0.0138 N   0  0  0  0  0  0  0  0  0  0  0  0
   -1.2244   -1.3434    0.1076 C   0  0  0  0  0  0  0  0  0  0  0  0
   -1.4838   -2.5374   -0.0006 O   0  0  0  0  0  0  0  0  0  0  0  0
    0.1467   -0.8471    0.2817 C   0  0  0  0  0  0  0  0  0  0  0  0
    0.5528    0.2972    0.9577 C   0  0  0  0  0  0  0  0  0  0  0  0
   -0.1971    1.3259    1.7274 C   0  0  0  0  0  0  0  0  0  0  0  0
    1.9213    0.3740    0.8645 N   0  0  0  0  0  0  0  0  0  0  0  0
    2.4343   -0.7047    0.1920 C   0  0  0  0  0  0  0  0  0  0  0  0
    3.8341   -0.8880   -0.0001 C   0  0  0  0  0  0  0  0  0  0  0  0
    4.8599   -0.0857    0.3311 C   0  0  0  0  0  0  0  0  0  0  0  0
    4.8887    1.2637    1.0109 C   0  0  0  0  0  0  0  0  0  0  0  0
    3.9531    1.9231    1.4237 O   0  0  0  0  0  0  0  0  0  0  0  0
    6.2261    1.6154    1.0823 N   0  0  0  0  0  0  0  0  0  0  0  0
    7.0402    0.6370    0.5277 C   0  0  0  0  0  0  0  0  0  0  0  0
    8.4187    0.6660    0.4370 C   0  0  0  0  0  0  0  0  0  0  0  0
    9.0414   -0.4304   -0.1614 C   0  0  0  0  0  0  0  0  0  0  0  0
    8.2757   -1.5028   -0.6415 C   0  0  0  0  0  0  0  0  0  0  0  0
    8.8999   -2.5420   -1.2115 F   0  0  0  0  0  0  0  0  0  0  0  0
    6.8843   -1.5184   -0.5428 C   0  0  0  0  0  0  0  0  0  0  0  0
    6.2691   -0.4295    0.0510 C   0  0  0  0  0  0  0  0  0  0  0  0
    1.3490   -1.4878   -0.1907 C   0  0  0  0  0  0  0  0  0  0  0  0
    1.3862   -2.7721   -0.9527 C   0  0  0  0  0  0  0  0  0  0  0  0
   -4.4669    0.8190   -2.8080 H   0  0  0  0  0  0  0  0  0  0  0  0
   -5.9485    0.9921   -3.7488 H   0  0  0  0  0  0  0  0  0  0  0  0
   -5.5523   -0.5743   -3.0293 H   0  0  0  0  0  0  0  0  0  0  0  0
   -6.1987    1.9903   -1.4733 H   0  0  0  0  0  0  0  0  0  0  0  0
   -7.3516    0.7053   -1.8299 H   0  0  0  0  0  0  0  0  0  0  0  0
   -6.5805   -0.3167    1.5124 H   0  0  0  0  0  0  0  0  0  0  0  0
   -7.8421   -0.0540    0.3425 H   0  0  0  0  0  0  0  0  0  0  0  0
   -6.1250    2.1901    1.5530 H   0  0  0  0  0  0  0  0  0  0  0  0
   -7.7646    1.7470    2.0387 H   0  0  0  0  0  0  0  0  0  0  0  0
   -7.4814    2.4128    0.4297 H   0  0  0  0  0  0  0  0  0  0  0  0
   -4.4628    0.5446    1.1177 H   0  0  0  0  0  0  0  0  0  0  0  0
   -4.1649    1.4179   -0.3611 H   0  0  0  0  0  0  0  0  0  0  0  0
   -3.5384   -0.8470   -1.4476 H   0  0  0  0  0  0  0  0  0  0  0  0
   -3.8410   -1.6117    0.1155 H   0  0  0  0  0  0  0  0  0  0  0  0
   -1.8294    0.5658   -0.2083 H   0  0  0  0  0  0  0  0  0  0  0  0
   -1.0197    0.8721    2.2888 H   0  0  0  0  0  0  0  0  0  0  0  0
   -0.6080    2.0830    1.0524 H   0  0  0  0  0  0  0  0  0  0  0  0
    0.4508    1.8337    2.4500 H   0  0  0  0  0  0  0  0  0  0  0  0
    2.4729    1.1240    1.2703 H   0  0  0  0  0  0  0  0  0  0  0  0
    4.0860   -1.8252   -0.4912 H   0  0  0  0  0  0  0  0  0  0  0  0
    6.5394    2.4798    1.4970 H   0  0  0  0  0  0  0  0  0  0  0  0
    9.0000    1.5005    0.8122 H   0  0  0  0  0  0  0  0  0  0  0  0
   10.1227   -0.4653   -0.2614 H   0  0  0  0  0  0  0  0  0  0  0  0
    6.3295   -2.3661   -0.9255 H   0  0  0  0  0  0  0  0  0  0  0  0
    1.2355   -3.6174   -0.2737 H   0  0  0  0  0  0  0  0  0  0  0  0
    0.6028   -2.7930   -1.7172 H   0  0  0  0  0  0  0  0  0  0  0  0
    2.3398   -2.9148   -1.4688 H   0  0  0  0  0  0  0  0  0  0  0  0
  1  2  1  0
  2  3  1  0
  3  4  1  0
  4  5  1  0
  3  6  1  0
  6  7  1  0
  7  8  1  0
  8  9  1  0
  9 10  2  0
  9 11  1  0
 11 12  2  0
 12 13  1  0
 12 14  1  0
 14 15  1  0
 15 16  1  0
 16 17  2  0
 17 18  1  0
 18 19  2  0
 18 20  1  0
 20 21  1  0
 21 22  1  0
 22 23  2  0
 23 24  1  0
 24 25  1  0
 24 26  2  0
 26 27  1  0
 15 28  2  0
 28 29  1  0
 28 11  1  0
 27 17  1  0
 27 21  2  0
  1 30  1  0
  1 31  1  0
  1 32  1  0
  2 33  1  0
  2 34  1  0
  4 35  1  0
  4 36  1  0
  5 37  1  0
  5 38  1  0
  5 39  1  0
  6 40  1  0
  6 41  1  0
  7 42  1  0
  7 43  1  0
  8 44  1  0
 13 45  1  0
 13 46  1  0
 13 47  1  0
 14 48  1  0
 16 49  1  0
 20 50  1  0
 22 51  1  0
 23 52  1  0
 26 53  1  0
 29 54  1  0
 29 55  1  0
 29 56  1  0
M  END
$$$$
