
     RDKit          3D

 56 58  0  0  0  0  0  0  0  0999 V2000
  -36.6560  156.0970    6.3030 C   0  0  0  0  0  0  0  0  0  0  0  0
  -36.2720  155.8090    4.8550 C   0  0  0  0  0  0  0  0  0  0  0  0
  -35.7140  156.9730    4.1530 N   0  0  0  0  0  0  0  0  0  0  0  0
  -34.5880  157.5690    4.8920 C   0  0  0  0  0  0  0  0  0  0  0  0
  -33.2250  156.9120    4.6850 C   0  0  0  0  0  0  0  0  0  0  0  0
  -36.7240  157.9750    3.7730 C   0  0  0  0  0  0  0  0  0  0  0  0
  -37.9650  157.3290    3.1370 C   0  0  0  0  0  0  0  0  0  0  0  0
  -38.5110  158.1550    2.0760 N   0  0  0  0  0  0  0  0  0  0  0  0
  -39.8550  158.4610    2.0380 C   0  0  0  0  0  0  0  0  0  0  0  0
  -40.6750  157.9670    2.8060 O   0  0  0  0  0  0  0  0  0  0  0  0
  -40.2190  159.4800    1.0450 C   0  0  0  0  0  0  0  0  0  0  0  0
  -41.4620  160.0710    0.8570 C   0  0  0  0  0  0  0  0  0  0  0  0
  -42.7590  159.9260    1.5700 C   0  0  0  0  0  0  0  0  0  0  0  0
  -41.3470  160.9630   -0.1820 N   0  0  0  0  0  0  0  0  0  0  0  0
  -40.0610  161.0140   -0.6520 C   0  0  0  0  0  0  0  0  0  0  0  0
  -39.6660  161.8970   -1.6980 C   0  0  0  0  0  0  0  0  0  0  0  0
  -39.2370  161.6210   -2.9410 C   0  0  0  0  0  0  0  0  0  0  0  0
  -39.0260  160.3040   -3.6520 C   0  0  0  0  0  0  0  0  0  0  0  0
  -39.2210  159.1780   -3.2320 O   0  0  0  0  0  0  0  0  0  0  0  0
  -38.5630  160.6330   -4.9140 N   0  0  0  0  0  0  0  0  0  0  0  0
  -38.4620  162.0070   -5.0780 C   0  0  0  0  0  0  0  0  0  0  0  0
  -38.0360  162.6740   -6.2110 C   0  0  0  0  0  0  0  0  0  0  0  0
  -38.0120  164.0670   -6.1600 C   0  0  0  0  0  0  0  0  0  0  0  0
  -38.4090  164.7390   -4.9940 C   0  0  0  0  0  0  0  0  0  0  0  0
  -38.3750  166.0780   -4.9730 F   0  0  0  0  0  0  0  0  0  0  0  0
  -38.8360  164.0530   -3.8570 C   0  0  0  0  0  0  0  0  0  0  0  0
  -38.8590  162.6700   -3.9100 C   0  0  0  0  0  0  0  0  0  0  0  0
  -39.3280  160.0940    0.0920 C   0  0  0  0  0  0  0  0  0  0  0  0
  -37.8750  159.7760   -0.0430 C   0  0  0  0  0  0  0  0  0  0  0  0
  -35.9608  155.5756    6.9774 H   0  0  0  0  0  0  0  0  0  0  0  0
  -36.6032  157.1801    6.4879 H   0  0  0  0  0  0  0  0  0  0  0  0
  -37.6809  155.7430    6.4879 H   0  0  0  0  0  0  0  0  0  0  0  0
  -35.5211  155.0052    4.8474 H   0  0  0  0  0  0  0  0  0  0  0  0
  -37.1939  155.5244    4.3267 H   0  0  0  0  0  0  0  0  0  0  0  0
  -34.5038  158.6217    4.5843 H   0  0  0  0  0  0  0  0  0  0  0  0
  -34.8255  157.4272    5.9567 H   0  0  0  0  0  0  0  0  0  0  0  0
  -32.7711  156.6932    5.6628 H   0  0  0  0  0  0  0  0  0  0  0  0
  -33.3510  155.9757    4.1215 H   0  0  0  0  0  0  0  0  0  0  0  0
  -32.5711  157.5938    4.1215 H   0  0  0  0  0  0  0  0  0  0  0  0
  -37.0328  158.5270    4.6730 H   0  0  0  0  0  0  0  0  0  0  0  0
  -36.2722  158.6477    3.0291 H   0  0  0  0  0  0  0  0  0  0  0  0
  -37.6843  156.3507    2.7196 H   0  0  0  0  0  0  0  0  0  0  0  0
  -38.7330  157.2169    3.9165 H   0  0  0  0  0  0  0  0  0  0  0  0
  -37.9020  158.8360    1.6440 H   0  0  0  0  0  0  0  0  0  0  0  0
  -42.5846  159.9455    2.6559 H   0  0  0  0  0  0  0  0  0  0  0  0
  -43.4256  160.7552    1.2907 H   0  0  0  0  0  0  0  0  0  0  0  0
  -43.2261  158.9700    1.2907 H   0  0  0  0  0  0  0  0  0  0  0  0
  -42.1180  161.5270   -0.5290 H   0  0  0  0  0  0  0  0  0  0  0  0
  -39.7205  162.9674   -1.4503 H   0  0  0  0  0  0  0  0  0  0  0  0
  -38.3390  159.9360   -5.6090 H   0  0  0  0  0  0  0  0  0  0  0  0
  -37.7287  162.1285   -7.1154 H   0  0  0  0  0  0  0  0  0  0  0  0
  -37.6805  164.6416   -7.0374 H   0  0  0  0  0  0  0  0  0  0  0  0
  -39.1439  164.5926   -2.9493 H   0  0  0  0  0  0  0  0  0  0  0  0
  -37.4267  159.6779    0.9567 H   0  0  0  0  0  0  0  0  0  0  0  0
  -37.7561  158.8306   -0.5926 H   0  0  0  0  0  0  0  0  0  0  0  0
  -37.3720  160.5853   -0.5926 H   0  0  0  0  0  0  0  0  0  0  0  0
  1  2  1  0
  2  3  1  0
  3  4  1  0
  4  5  1  0
  3  6  1  0
  6  7  1  0
  7  8  1  0
  8  9  1  0
  9 10  2  0
  9 11  1  0
 11 12  2  0
 12 13  1  0
 12 14  1  0
 14 15  1  0
 15 16  1  0
 16 17  2  0
 17 18  1  0
 18 19  2  0
 18 20  1  0
 20 21  1  0
 21 22  1  0
 22 23  2  0
 23 24  1  0
 24 25  1  0
 24 26  2  0
 26 27  1  0
 15 28  2  0
 28 29  1  0
 28 11  1  0
 27 17  1  0
 27 21  2  0
  1 30  1  0
  1 31  1  0
  1 32  1  0
  2 33  1  0
  2 34  1  0
  4 35  1  0
  4 36  1  0
  5 37  1  0
  5 38  1  0
  5 39  1  0
  6 40  1  0
  6 41  1  0
  7 42  1  0
  7 43  1  0
  8 44  1  0
 13 45  1  0
 13 46  1  0
 13 47  1  0
 14 48  1  0
 16 49  1  0
 20 50  1  0
 22 51  1  0
 23 52  1  0
 26 53  1  0
 29 54  1  0
 29 55  1  0
 29 56  1  0
M  END
>  <meeko>  (1) 
{"is_sidechain": false}

>  <vina_affinity_kcal_mol>  (1) 
-10.07

>  <pose_rank>  (1) 
1

$$$$

     RDKit          3D

 56 58  0  0  0  0  0  0  0  0999 V2000
  -33.4540  157.1940    4.6140 C   0  0  0  0  0  0  0  0  0  0  0  0
  -34.9010  156.8190    4.9170 C   0  0  0  0  0  0  0  0  0  0  0  0
  -35.8790  157.7950    4.4140 N   0  0  0  0  0  0  0  0  0  0  0  0
  -36.5030  158.5560    5.5100 C   0  0  0  0  0  0  0  0  0  0  0  0
  -36.2410  158.0380    6.9220 C   0  0  0  0  0  0  0  0  0  0  0  0
  -36.8760  157.2150    3.5000 C   0  0  0  0  0  0  0  0  0  0  0  0
  -38.2320  157.9330    3.5960 C   0  0  0  0  0  0  0  0  0  0  0  0
  -38.6220  158.5080    2.3220 N   0  0  0  0  0  0  0  0  0  0  0  0
  -39.9390  158.4970    1.9130 C   0  0  0  0  0  0  0  0  0  0  0  0
  -40.8230  157.9070    2.5260 O   0  0  0  0  0  0  0  0  0  0  0  0
  -40.2120  159.3070    0.7190 C   0  0  0  0  0  0  0  0  0  0  0  0
  -41.3140  160.1200    0.4830 C   0  0  0  0  0  0  0  0  0  0  0  0
  -42.4990  160.4670    1.3120 C   0  0  0  0  0  0  0  0  0  0  0  0
  -41.1580  160.6820   -0.7600 N   0  0  0  0  0  0  0  0  0  0  0  0
  -39.9690  160.3070   -1.3300 C   0  0  0  0  0  0  0  0  0  0  0  0
  -39.5460  160.7930   -2.6010 C   0  0  0  0  0  0  0  0  0  0  0  0
  -39.1120  162.0150   -2.9540 C   0  0  0  0  0  0  0  0  0  0  0  0
  -38.9220  163.2770   -2.1440 C   0  0  0  0  0  0  0  0  0  0  0  0
  -39.1210  163.4500   -0.9560 O   0  0  0  0  0  0  0  0  0  0  0  0
  -38.4580  164.2260   -3.0380 N   0  0  0  0  0  0  0  0  0  0  0  0
  -38.3300  163.7020   -4.3170 C   0  0  0  0  0  0  0  0  0  0  0  0
  -37.8920  164.3730   -5.4430 C   0  0  0  0  0  0  0  0  0  0  0  0
  -37.8400  163.6500   -6.6350 C   0  0  0  0  0  0  0  0  0  0  0  0
  -38.2210  162.3010   -6.6620 C   0  0  0  0  0  0  0  0  0  0  0  0
  -38.1610  161.6320   -7.8210 F   0  0  0  0  0  0  0  0  0  0  0  0
  -38.6620  161.6360   -5.5170 C   0  0  0  0  0  0  0  0  0  0  0  0
  -38.7130  162.3550   -4.3350 C   0  0  0  0  0  0  0  0  0  0  0  0
  -39.3530  159.4420   -0.4310 C   0  0  0  0  0  0  0  0  0  0  0  0
  -38.0350  158.7590   -0.5940 C   0  0  0  0  0  0  0  0  0  0  0  0
  -32.9067  157.3358    5.5576 H   0  0  0  0  0  0  0  0  0  0  0  0
  -32.9805  156.3889    4.0329 H   0  0  0  0  0  0  0  0  0  0  0  0
  -33.4312  158.1277    4.0329 H   0  0  0  0  0  0  0  0  0  0  0  0
  -35.1122  155.8442    4.4531 H   0  0  0  0  0  0  0  0  0  0  0  0
  -35.0052  156.7923    6.0117 H   0  0  0  0  0  0  0  0  0  0  0  0
  -36.1298  159.5894    5.4566 H   0  0  0  0  0  0  0  0  0  0  0  0
  -37.5879  158.4591    5.3565 H   0  0  0  0  0  0  0  0  0  0  0  0
  -36.6110  158.7695    7.6555 H   0  0  0  0  0  0  0  0  0  0  0  0
  -36.7631  157.0802    7.0640 H   0  0  0  0  0  0  0  0  0  0  0  0
  -35.1602  157.8910    7.0640 H   0  0  0  0  0  0  0  0  0  0  0  0
  -36.5027  157.2976    2.4686 H   0  0  0  0  0  0  0  0  0  0  0  0
  -37.0274  156.1635    3.7854 H   0  0  0  0  0  0  0  0  0  0  0  0
  -38.9981  157.2090    3.9106 H   0  0  0  0  0  0  0  0  0  0  0  0
  -38.1390  158.7486    4.3282 H   0  0  0  0  0  0  0  0  0  0  0  0
  -38.0630  159.2650    1.9520 H   0  0  0  0  0  0  0  0  0  0  0  0
  -42.2364  160.3901    2.3774 H   0  0  0  0  0  0  0  0  0  0  0  0
  -42.8161  161.4957    1.0859 H   0  0  0  0  0  0  0  0  0  0  0  0
  -43.3210  159.7718    1.0859 H   0  0  0  0  0  0  0  0  0  0  0  0
  -41.8310  161.3170   -1.1810 H   0  0  0  0  0  0  0  0  0  0  0  0
  -39.5798  160.0562   -3.4171 H   0  0  0  0  0  0  0  0  0  0  0  0
  -38.2420  165.1720   -2.7620 H   0  0  0  0  0  0  0  0  0  0  0  0
  -37.5970  165.4319   -5.4012 H   0  0  0  0  0  0  0  0  0  0  0  0
  -37.4984  164.1408   -7.5583 H   0  0  0  0  0  0  0  0  0  0  0  0
  -38.9588  160.5774   -5.5524 H   0  0  0  0  0  0  0  0  0  0  0  0
  -37.6109  158.5392    0.3969 H   0  0  0  0  0  0  0  0  0  0  0  0
  -38.1749  157.8199   -1.1495 H   0  0  0  0  0  0  0  0  0  0  0  0
  -37.3484  159.4148   -1.1495 H   0  0  0  0  0  0  0  0  0  0  0  0
  1  2  1  0
  2  3  1  0
  3  4  1  0
  4  5  1  0
  3  6  1  0
  6  7  1  0
  7  8  1  0
  8  9  1  0
  9 10  2  0
  9 11  1  0
 11 12  2  0
 12 13  1  0
 12 14  1  0
 14 15  1  0
 15 16  1  0
 16 17  2  0
 17 18  1  0
 18 19  2  0
 18 20  1  0
 20 21  1  0
 21 22  1  0
 22 23  2  0
 23 24  1  0
 24 25  1  0
 24 26  2  0
 26 27  1  0
 15 28  2  0
 28 29  1  0
 28 11  1  0
 27 17  1  0
 27 21  2  0
  1 30  1  0
  1 31  1  0
  1 32  1  0
  2 33  1  0
  2 34  1  0
  4 35  1  0
  4 36  1  0
  5 37  1  0
  5 38  1  0
  5 39  1  0
  6 40  1  0
  6 41  1  0
  7 42  1  0
  7 43  1  0
  8 44  1  0
 13 45  1  0
 13 46  1  0
 13 47  1  0
 14 48  1  0
 16 49  1  0
 20 50  1  0
 22 51  1  0
 23 52  1  0
 26 53  1  0
 29 54  1  0
 29 55  1  0
 29 56  1  0
M  END
>  <meeko>  (2) 
{"is_sidechain": false}

>  <vina_affinity_kcal_mol>  (2) 
-10.055

>  <pose_rank>  (2) 
2

$$$$

     RDKit          3D

 56 58  0  0  0  0  0  0  0  0999 V2000
  -38.5290  158.0000   -0.6750 C   0  0  0  0  0  0  0  0  0  0  0  0
  -38.4690  158.4460    0.7820 C   0  0  0  0  0  0  0  0  0  0  0  0
  -39.7160  159.0620    1.2600 N   0  0  0  0  0  0  0  0  0  0  0  0
  -40.2170  158.4050    2.4790 C   0  0  0  0  0  0  0  0  0  0  0  0
  -41.7320  158.4110    2.6710 C   0  0  0  0  0  0  0  0  0  0  0  0
  -40.7540  159.1780    0.2220 C   0  0  0  0  0  0  0  0  0  0  0  0
  -41.2220  160.6310    0.0360 C   0  0  0  0  0  0  0  0  0  0  0  0
  -40.7120  161.2010   -1.1980 N   0  0  0  0  0  0  0  0  0  0  0  0
  -39.4840  161.8260   -1.2340 C   0  0  0  0  0  0  0  0  0  0  0  0
  -38.8170  162.0450   -0.2280 O   0  0  0  0  0  0  0  0  0  0  0  0
  -39.0060  162.1500   -2.5830 C   0  0  0  0  0  0  0  0  0  0  0  0
  -38.6640  163.4010   -3.0820 C   0  0  0  0  0  0  0  0  0  0  0  0
  -38.6220  164.7510   -2.4590 C   0  0  0  0  0  0  0  0  0  0  0  0
  -38.2760  163.2380   -4.3890 N   0  0  0  0  0  0  0  0  0  0  0  0
  -38.3030  161.9170   -4.7540 C   0  0  0  0  0  0  0  0  0  0  0  0
  -37.8990  161.4750   -6.0470 C   0  0  0  0  0  0  0  0  0  0  0  0
  -37.8470  162.1470   -7.2090 C   0  0  0  0  0  0  0  0  0  0  0  0
  -38.1910  163.5800   -7.5460 C   0  0  0  0  0  0  0  0  0  0  0  0
  -38.5910  164.4570   -6.8030 O   0  0  0  0  0  0  0  0  0  0  0  0
  -37.9500  163.7100   -8.9030 N   0  0  0  0  0  0  0  0  0  0  0  0
  -37.4900  162.5230   -9.4550 C   0  0  0  0  0  0  0  0  0  0  0  0
  -37.1510  162.3050  -10.7770 C   0  0  0  0  0  0  0  0  0  0  0  0
  -36.7080  161.0280  -11.1190 C   0  0  0  0  0  0  0  0  0  0  0  0
  -36.6180  160.0250  -10.1430 C   0  0  0  0  0  0  0  0  0  0  0  0
  -36.1890  158.8070  -10.5000 F   0  0  0  0  0  0  0  0  0  0  0  0
  -36.9640  160.2590   -8.8110 C   0  0  0  0  0  0  0  0  0  0  0  0
  -37.4030  161.5280   -8.4740 C   0  0  0  0  0  0  0  0  0  0  0  0
  -38.7600  161.2080   -3.6470 C   0  0  0  0  0  0  0  0  0  0  0  0
  -38.9670  159.7320   -3.5420 C   0  0  0  0  0  0  0  0  0  0  0  0
  -38.6755  156.9107   -0.7193 H   0  0  0  0  0  0  0  0  0  0  0  0
  -39.3675  158.5035   -1.1784 H   0  0  0  0  0  0  0  0  0  0  0  0
  -37.5872  158.2640   -1.1784 H   0  0  0  0  0  0  0  0  0  0  0  0
  -38.2537  157.5664    1.4065 H   0  0  0  0  0  0  0  0  0  0  0  0
  -37.6825  159.2117    0.8533 H   0  0  0  0  0  0  0  0  0  0  0  0
  -39.8852  157.3565    2.4563 H   0  0  0  0  0  0  0  0  0  0  0  0
  -39.8105  158.9890    3.3179 H   0  0  0  0  0  0  0  0  0  0  0  0
  -41.9654  158.4119    3.7460 H   0  0  0  0  0  0  0  0  0  0  0  0
  -42.1574  159.3108    2.2027 H   0  0  0  0  0  0  0  0  0  0  0  0
  -42.1645  157.5146    2.2027 H   0  0  0  0  0  0  0  0  0  0  0  0
  -40.3456  158.8115   -0.7314 H   0  0  0  0  0  0  0  0  0  0  0  0
  -41.6207  158.5796    0.5395 H   0  0  0  0  0  0  0  0  0  0  0  0
  -42.3215  160.6519    0.0116 H   0  0  0  0  0  0  0  0  0  0  0  0
  -40.8372  161.2275    0.8763 H   0  0  0  0  0  0  0  0  0  0  0  0
  -41.0100  160.7860   -2.0700 H   0  0  0  0  0  0  0  0  0  0  0  0
  -38.6252  164.6496   -1.3637 H   0  0  0  0  0  0  0  0  0  0  0  0
  -37.7072  165.2730   -2.7763 H   0  0  0  0  0  0  0  0  0  0  0  0
  -39.5026  165.3288   -2.7763 H   0  0  0  0  0  0  0  0  0  0  0  0
  -37.9810  164.0020   -4.9900 H   0  0  0  0  0  0  0  0  0  0  0  0
  -37.5813  160.4233   -6.1020 H   0  0  0  0  0  0  0  0  0  0  0  0
  -38.0950  164.5770   -9.3990 H   0  0  0  0  0  0  0  0  0  0  0  0
  -37.2275  163.1053  -11.5278 H   0  0  0  0  0  0  0  0  0  0  0  0
  -36.4278  160.8062  -12.1593 H   0  0  0  0  0  0  0  0  0  0  0  0
  -36.8904  159.4629   -8.0555 H   0  0  0  0  0  0  0  0  0  0  0  0
  -39.0077  159.4420   -2.4817 H   0  0  0  0  0  0  0  0  0  0  0  0
  -39.9123  159.4584   -4.0335 H   0  0  0  0  0  0  0  0  0  0  0  0
  -38.1334  159.2090   -4.0335 H   0  0  0  0  0  0  0  0  0  0  0  0
  1  2  1  0
  2  3  1  0
  3  4  1  0
  4  5  1  0
  3  6  1  0
  6  7  1  0
  7  8  1  0
  8  9  1  0
  9 10  2  0
  9 11  1  0
 11 12  2  0
 12 13  1  0
 12 14  1  0
 14 15  1  0
 15 16  1  0
 16 17  2  0
 17 18  1  0
 18 19  2  0
 18 20  1  0
 20 21  1  0
 21 22  1  0
 22 23  2  0
 23 24  1  0
 24 25  1  0
 24 26  2  0
 26 27  1  0
 15 28  2  0
 28 29  1  0
 28 11  1  0
 27 17  1  0
 27 21  2  0
  1 30  1  0
  1 31  1  0
  1 32  1  0
  2 33  1  0
  2 34  1  0
  4 35  1  0
  4 36  1  0
  5 37  1  0
  5 38  1  0
  5 39  1  0
  6 40  1  0
  6 41  1  0
  7 42  1  0
  7 43  1  0
  8 44  1  0
 13 45  1  0
 13 46  1  0
 13 47  1  0
 14 48  1  0
 16 49  1  0
 20 50  1  0
 22 51  1  0
 23 52  1  0
 26 53  1  0
 29 54  1  0
 29 55  1  0
 29 56  1  0
M  END
>  <meeko>  (3) 
{"is_sidechain": false}

>  <vina_affinity_kcal_mol>  (3) 
-9.707

>  <pose_rank>  (3) 
3

$$$$

     RDKit          3D

 56 58  0  0  0  0  0  0  0  0999 V2000
  -38.5850  158.0300   -0.6710 C   0  0  0  0  0  0  0  0  0  0  0  0
  -38.4330  158.4370    0.7910 C   0  0  0  0  0  0  0  0  0  0  0  0
  -39.6250  159.0960    1.3450 N   0  0  0  0  0  0  0  0  0  0  0  0
  -40.1500  158.3780    2.5190 C   0  0  0  0  0  0  0  0  0  0  0  0
  -41.6690  158.3660    2.6760 C   0  0  0  0  0  0  0  0  0  0  0  0
  -40.6700  159.3660    0.3430 C   0  0  0  0  0  0  0  0  0  0  0  0
  -40.8620  160.8730    0.1030 C   0  0  0  0  0  0  0  0  0  0  0  0
  -40.5260  161.2420   -1.2600 N   0  0  0  0  0  0  0  0  0  0  0  0
  -39.4430  162.0530   -1.5260 C   0  0  0  0  0  0  0  0  0  0  0  0
  -38.7860  162.6000   -0.6470 O   0  0  0  0  0  0  0  0  0  0  0  0
  -39.0960  162.1550   -2.9490 C   0  0  0  0  0  0  0  0  0  0  0  0
  -38.9030  161.1140   -3.8500 C   0  0  0  0  0  0  0  0  0  0  0  0
  -39.0150  159.6370   -3.7130 C   0  0  0  0  0  0  0  0  0  0  0  0
  -38.5890  161.6670   -5.0670 N   0  0  0  0  0  0  0  0  0  0  0  0
  -38.6170  163.0370   -5.0110 C   0  0  0  0  0  0  0  0  0  0  0  0
  -38.3750  163.8510   -6.1550 C   0  0  0  0  0  0  0  0  0  0  0  0
  -38.0880  163.4960   -7.4190 C   0  0  0  0  0  0  0  0  0  0  0  0
  -37.9280  162.1350   -8.0590 C   0  0  0  0  0  0  0  0  0  0  0  0
  -38.0400  161.0390   -7.5420 O   0  0  0  0  0  0  0  0  0  0  0  0
  -37.6260  162.3830   -9.3870 N   0  0  0  0  0  0  0  0  0  0  0  0
  -37.5830  163.7440   -9.6550 C   0  0  0  0  0  0  0  0  0  0  0  0
  -37.3140  164.3360  -10.8740 C   0  0  0  0  0  0  0  0  0  0  0  0
  -37.3220  165.7300  -10.9210 C   0  0  0  0  0  0  0  0  0  0  0  0
  -37.5960  166.4750   -9.7650 C   0  0  0  0  0  0  0  0  0  0  0  0
  -37.5970  167.8130   -9.8390 F   0  0  0  0  0  0  0  0  0  0  0  0
  -37.8660  165.8630   -8.5400 C   0  0  0  0  0  0  0  0  0  0  0  0
  -37.8570  164.4800   -8.4960 C   0  0  0  0  0  0  0  0  0  0  0  0
  -38.9270  163.3760   -3.6980 C   0  0  0  0  0  0  0  0  0  0  0  0
  -39.0710  164.7490   -3.1290 C   0  0  0  0  0  0  0  0  0  0  0  0
  -38.9694  157.0009   -0.7271 H   0  0  0  0  0  0  0  0  0  0  0  0
  -39.2890  158.7120   -1.1702 H   0  0  0  0  0  0  0  0  0  0  0  0
  -37.6063  158.0836   -1.1702 H   0  0  0  0  0  0  0  0  0  0  0  0
  -38.2277  157.5336    1.3840 H   0  0  0  0  0  0  0  0  0  0  0  0
  -37.6098  159.1650    0.8395 H   0  0  0  0  0  0  0  0  0  0  0  0
  -39.8108  157.3337    2.4535 H   0  0  0  0  0  0  0  0  0  0  0  0
  -39.7671  158.9234    3.3942 H   0  0  0  0  0  0  0  0  0  0  0  0
  -41.9271  158.3640    3.7453 H   0  0  0  0  0  0  0  0  0  0  0  0
  -42.0941  159.2608    2.1979 H   0  0  0  0  0  0  0  0  0  0  0  0
  -42.0799  157.4646    2.1979 H   0  0  0  0  0  0  0  0  0  0  0  0
  -40.3840  158.8888   -0.6059 H   0  0  0  0  0  0  0  0  0  0  0  0
  -41.6186  158.9587    0.7229 H   0  0  0  0  0  0  0  0  0  0  0  0
  -41.9130  161.1344    0.2952 H   0  0  0  0  0  0  0  0  0  0  0  0
  -40.1918  161.4188    0.7834 H   0  0  0  0  0  0  0  0  0  0  0  0
  -40.7770  160.6010   -2.0000 H   0  0  0  0  0  0  0  0  0  0  0  0
  -39.0354  159.3682   -2.6465 H   0  0  0  0  0  0  0  0  0  0  0  0
  -39.9418  159.2932   -4.1956 H   0  0  0  0  0  0  0  0  0  0  0  0
  -38.1506  159.1574   -4.1956 H   0  0  0  0  0  0  0  0  0  0  0  0
  -38.3930  161.1220   -5.9010 H   0  0  0  0  0  0  0  0  0  0  0  0
  -38.4317  164.9349   -5.9765 H   0  0  0  0  0  0  0  0  0  0  0  0
  -37.4680  161.6430  -10.0550 H   0  0  0  0  0  0  0  0  0  0  0  0
  -37.1025  163.7334  -11.7696 H   0  0  0  0  0  0  0  0  0  0  0  0
  -37.1125  166.2472  -11.8690 H   0  0  0  0  0  0  0  0  0  0  0  0
  -38.0786  166.4595   -7.6406 H   0  0  0  0  0  0  0  0  0  0  0  0
  -39.0651  164.6931   -2.0304 H   0  0  0  0  0  0  0  0  0  0  0  0
  -38.2337  165.3764   -3.4687 H   0  0  0  0  0  0  0  0  0  0  0  0
  -40.0202  165.1890   -3.4687 H   0  0  0  0  0  0  0  0  0  0  0  0
  1  2  1  0
  2  3  1  0
  3  4  1  0
  4  5  1  0
  3  6  1  0
  6  7  1  0
  7  8  1  0
  8  9  1  0
  9 10  2  0
  9 11  1  0
 11 12  2  0
 12 13  1  0
 12 14  1  0
 14 15  1  0
 15 16  1  0
 16 17  2  0
 17 18  1  0
 18 19  2  0
 18 20  1  0
 20 21  1  0
 21 22  1  0
 22 23  2  0
 23 24  1  0
 24 25  1  0
 24 26  2  0
 26 27  1  0
 15 28  2  0
 28 29  1  0
 28 11  1  0
 27 17  1  0
 27 21  2  0
  1 30  1  0
  1 31  1  0
  1 32  1  0
  2 33  1  0
  2 34  1  0
  4 35  1  0
  4 36  1  0
  5 37  1  0
  5 38  1  0
  5 39  1  0
  6 40  1  0
  6 41  1  0
  7 42  1  0
  7 43  1  0
  8 44  1  0
 13 45  1  0
 13 46  1  0
 13 47  1  0
 14 48  1  0
 16 49  1  0
 20 50  1  0
 22 51  1  0
 23 52  1  0
 26 53  1  0
 29 54  1  0
 29 55  1  0
 29 56  1  0
M  END
>  <meeko>  (4) 
{"is_sidechain": false}

>  <vina_affinity_kcal_mol>  (4) 
-9.703

>  <pose_rank>  (4) 
4

$$$$

     RDKit          3D

 56 58  0  0  0  0  0  0  0  0999 V2000
  -35.6130  167.1210  -10.9940 C   0  0  0  0  0  0  0  0  0  0  0  0
  -36.8360  166.2170  -11.1030 C   0  0  0  0  0  0  0  0  0  0  0  0
  -37.0480  165.3680   -9.9210 N   0  0  0  0  0  0  0  0  0  0  0  0
  -37.0310  163.9370  -10.2670 C   0  0  0  0  0  0  0  0  0  0  0  0
  -38.3910  163.2470  -10.3390 C   0  0  0  0  0  0  0  0  0  0  0  0
  -38.2360  165.7380   -9.1330 C   0  0  0  0  0  0  0  0  0  0  0  0
  -37.9230  165.8320   -7.6310 C   0  0  0  0  0  0  0  0  0  0  0  0
  -38.3090  164.6210   -6.9300 N   0  0  0  0  0  0  0  0  0  0  0  0
  -37.6380  164.2160   -5.7950 C   0  0  0  0  0  0  0  0  0  0  0  0
  -36.6230  164.7690   -5.3870 O   0  0  0  0  0  0  0  0  0  0  0  0
  -38.2770  163.1070   -5.0750 C   0  0  0  0  0  0  0  0  0  0  0  0
  -38.4300  161.7950   -5.5050 C   0  0  0  0  0  0  0  0  0  0  0  0
  -37.9940  161.0880   -6.7390 C   0  0  0  0  0  0  0  0  0  0  0  0
  -39.0870  161.1050   -4.5160 N   0  0  0  0  0  0  0  0  0  0  0  0
  -39.3280  161.9050   -3.4290 C   0  0  0  0  0  0  0  0  0  0  0  0
  -39.9560  161.4150   -2.2470 C   0  0  0  0  0  0  0  0  0  0  0  0
  -39.5510  160.4650   -1.3880 C   0  0  0  0  0  0  0  0  0  0  0  0
  -38.3120  159.5990   -1.3730 C   0  0  0  0  0  0  0  0  0  0  0  0
  -37.3850  159.5930   -2.1610 O   0  0  0  0  0  0  0  0  0  0  0  0
  -38.4340  158.7960   -0.2530 N   0  0  0  0  0  0  0  0  0  0  0  0
  -39.6070  159.0610    0.4390 C   0  0  0  0  0  0  0  0  0  0  0  0
  -40.0380  158.4440    1.5990 C   0  0  0  0  0  0  0  0  0  0  0  0
  -41.2560  158.8680    2.1310 C   0  0  0  0  0  0  0  0  0  0  0  0
  -41.9920  159.8790    1.4960 C   0  0  0  0  0  0  0  0  0  0  0  0
  -43.1580  160.2660    2.0290 F   0  0  0  0  0  0  0  0  0  0  0  0
  -41.5450  160.4930    0.3260 C   0  0  0  0  0  0  0  0  0  0  0  0
  -40.3360  160.0710   -0.2000 C   0  0  0  0  0  0  0  0  0  0  0  0
  -38.8380  163.1680   -3.7470 C   0  0  0  0  0  0  0  0  0  0  0  0
  -38.8660  164.3900   -2.8900 C   0  0  0  0  0  0  0  0  0  0  0  0
  -35.3785  167.2943   -9.9334 H   0  0  0  0  0  0  0  0  0  0  0  0
  -34.7552  166.6382  -11.4850 H   0  0  0  0  0  0  0  0  0  0  0  0
  -35.8230  168.0827  -11.4850 H   0  0  0  0  0  0  0  0  0  0  0  0
  -37.7251  166.8499  -11.2405 H   0  0  0  0  0  0  0  0  0  0  0  0
  -36.6650  165.5446  -11.9566 H   0  0  0  0  0  0  0  0  0  0  0  0
  -36.5499  163.8349  -11.2509 H   0  0  0  0  0  0  0  0  0  0  0  0
  -36.4913  163.4412   -9.4467 H   0  0  0  0  0  0  0  0  0  0  0  0
  -38.7612  163.0592   -9.3204 H   0  0  0  0  0  0  0  0  0  0  0  0
  -39.1022  163.8933  -10.8743 H   0  0  0  0  0  0  0  0  0  0  0  0
  -38.2894  162.2914  -10.8743 H   0  0  0  0  0  0  0  0  0  0  0  0
  -38.6033  166.7146   -9.4812 H   0  0  0  0  0  0  0  0  0  0  0  0
  -38.9953  164.9546   -9.2739 H   0  0  0  0  0  0  0  0  0  0  0  0
  -36.8425  165.9915   -7.5004 H   0  0  0  0  0  0  0  0  0  0  0  0
  -38.4965  166.6714   -7.2110 H   0  0  0  0  0  0  0  0  0  0  0  0
  -39.2740  164.3260   -6.9880 H   0  0  0  0  0  0  0  0  0  0  0  0
  -37.4349  160.1814   -6.4641 H   0  0  0  0  0  0  0  0  0  0  0  0
  -38.8768  160.8084   -7.3327 H   0  0  0  0  0  0  0  0  0  0  0  0
  -37.3479  161.7513   -7.3327 H   0  0  0  0  0  0  0  0  0  0  0  0
  -39.3310  160.1210   -4.5810 H   0  0  0  0  0  0  0  0  0  0  0  0
  -40.9188  161.8865   -2.0008 H   0  0  0  0  0  0  0  0  0  0  0  0
  -37.7360  158.1140    0.0050 H   0  0  0  0  0  0  0  0  0  0  0  0
  -39.4458  157.6526    2.0817 H   0  0  0  0  0  0  0  0  0  0  0  0
  -41.6409  158.4073    3.0527 H   0  0  0  0  0  0  0  0  0  0  0  0
  -42.1326  161.2848   -0.1616 H   0  0  0  0  0  0  0  0  0  0  0  0
  -38.8592  164.0949   -1.8303 H   0  0  0  0  0  0  0  0  0  0  0  0
  -37.9818  165.0083   -3.1041 H   0  0  0  0  0  0  0  0  0  0  0  0
  -39.7776  164.9672   -3.1041 H   0  0  0  0  0  0  0  0  0  0  0  0
  1  2  1  0
  2  3  1  0
  3  4  1  0
  4  5  1  0
  3  6  1  0
  6  7  1  0
  7  8  1  0
  8  9  1  0
  9 10  2  0
  9 11  1  0
 11 12  2  0
 12 13  1  0
 12 14  1  0
 14 15  1  0
 15 16  1  0
 16 17  2  0
 17 18  1  0
 18 19  2  0
 18 20  1  0
 20 21  1  0
 21 22  1  0
 22 23  2  0
 23 24  1  0
 24 25  1  0
 24 26  2  0
 26 27  1  0
 15 28  2  0
 28 29  1  0
 28 11  1  0
 27 17  1  0
 27 21  2  0
  1 30  1  0
  1 31  1  0
  1 32  1  0
  2 33  1  0
  2 34  1  0
  4 35  1  0
  4 36  1  0
  5 37  1  0
  5 38  1  0
  5 39  1  0
  6 40  1  0
  6 41  1  0
  7 42  1  0
  7 43  1  0
  8 44  1  0
 13 45  1  0
 13 46  1  0
 13 47  1  0
 14 48  1  0
 16 49  1  0
 20 50  1  0
 22 51  1  0
 23 52  1  0
 26 53  1  0
 29 54  1  0
 29 55  1  0
 29 56  1  0
M  END
>  <meeko>  (5) 
{"is_sidechain": false}

>  <vina_affinity_kcal_mol>  (5) 
-9.691

>  <pose_rank>  (5) 
5

$$$$

     RDKit          3D

 56 58  0  0  0  0  0  0  0  0999 V2000
  -37.5410  155.9660    5.6050 C   0  0  0  0  0  0  0  0  0  0  0  0
  -37.1930  155.9360    4.1200 C   0  0  0  0  0  0  0  0  0  0  0  0
  -36.6250  157.1980    3.6240 N   0  0  0  0  0  0  0  0  0  0  0  0
  -35.7090  157.8070    4.6030 C   0  0  0  0  0  0  0  0  0  0  0  0
  -34.2630  157.3160    4.5670 C   0  0  0  0  0  0  0  0  0  0  0  0
  -37.6370  158.1520    3.1400 C   0  0  0  0  0  0  0  0  0  0  0  0
  -38.4630  157.5730    1.9790 C   0  0  0  0  0  0  0  0  0  0  0  0
  -38.3660  158.4030    0.7910 N   0  0  0  0  0  0  0  0  0  0  0  0
  -39.4650  159.0830    0.3120 C   0  0  0  0  0  0  0  0  0  0  0  0
  -40.5930  158.9380    0.7720 O   0  0  0  0  0  0  0  0  0  0  0  0
  -39.1650  160.0500   -0.7520 C   0  0  0  0  0  0  0  0  0  0  0  0
  -38.9320  161.4130   -0.6160 C   0  0  0  0  0  0  0  0  0  0  0  0
  -38.8650  162.3040    0.5740 C   0  0  0  0  0  0  0  0  0  0  0  0
  -38.6990  161.9240   -1.8690 N   0  0  0  0  0  0  0  0  0  0  0  0
  -38.7210  160.9370   -2.8200 C   0  0  0  0  0  0  0  0  0  0  0  0
  -38.4600  161.1980   -4.1960 C   0  0  0  0  0  0  0  0  0  0  0  0
  -38.4450  162.3650   -4.8620 C   0  0  0  0  0  0  0  0  0  0  0  0
  -38.6940  163.7810   -4.3950 C   0  0  0  0  0  0  0  0  0  0  0  0
  -38.9580  164.1720   -3.2740 O   0  0  0  0  0  0  0  0  0  0  0  0
  -38.5520  164.5730   -5.5210 N   0  0  0  0  0  0  0  0  0  0  0  0
  -38.2380  163.8160   -6.6410 C   0  0  0  0  0  0  0  0  0  0  0  0
  -38.0260  164.2880   -7.9230 C   0  0  0  0  0  0  0  0  0  0  0  0
  -37.7200  163.3470   -8.9060 C   0  0  0  0  0  0  0  0  0  0  0  0
  -37.6370  161.9850   -8.5800 C   0  0  0  0  0  0  0  0  0  0  0  0
  -37.3420  161.1030   -9.5440 F   0  0  0  0  0  0  0  0  0  0  0  0
  -37.8540  161.5230   -7.2820 C   0  0  0  0  0  0  0  0  0  0  0  0
  -38.1570  162.4590   -6.3080 C   0  0  0  0  0  0  0  0  0  0  0  0
  -39.0160  159.7500   -2.1550 C   0  0  0  0  0  0  0  0  0  0  0  0
  -39.1550  158.3890   -2.7540 C   0  0  0  0  0  0  0  0  0  0  0  0
  -36.6188  155.8865    6.1994 H   0  0  0  0  0  0  0  0  0  0  0  0
  -38.0504  156.9114    5.8432 H   0  0  0  0  0  0  0  0  0  0  0  0
  -38.2047  155.1217    5.8432 H   0  0  0  0  0  0  0  0  0  0  0  0
  -36.4595  155.1340    3.9507 H   0  0  0  0  0  0  0  0  0  0  0  0
  -38.1314  155.7666    3.5717 H   0  0  0  0  0  0  0  0  0  0  0  0
  -35.6998  158.8924    4.4246 H   0  0  0  0  0  0  0  0  0  0  0  0
  -36.0955  157.5148    5.5905 H   0  0  0  0  0  0  0  0  0  0  0  0
  -33.8928  157.1903    5.5952 H   0  0  0  0  0  0  0  0  0  0  0  0
  -34.2163  156.3516    4.0400 H   0  0  0  0  0  0  0  0  0  0  0  0
  -33.6387  158.0525    4.0400 H   0  0  0  0  0  0  0  0  0  0  0  0
  -38.3154  158.4017    3.9691 H   0  0  0  0  0  0  0  0  0  0  0  0
  -37.1133  159.0468    2.7724 H   0  0  0  0  0  0  0  0  0  0  0  0
  -38.0901  156.5655    1.7426 H   0  0  0  0  0  0  0  0  0  0  0  0
  -39.5175  157.5372    2.2899 H   0  0  0  0  0  0  0  0  0  0  0  0
  -37.4720  158.8240    0.5790 H   0  0  0  0  0  0  0  0  0  0  0  0
  -38.9107  161.6965    1.4899 H   0  0  0  0  0  0  0  0  0  0  0  0
  -37.9218  162.8697    0.5559 H   0  0  0  0  0  0  0  0  0  0  0  0
  -39.7130  163.0044    0.5559 H   0  0  0  0  0  0  0  0  0  0  0  0
  -38.5060  162.9040   -2.0510 H   0  0  0  0  0  0  0  0  0  0  0  0
  -38.2370  160.3098   -4.8055 H   0  0  0  0  0  0  0  0  0  0  0  0
  -38.6630  165.5760   -5.4980 H   0  0  0  0  0  0  0  0  0  0  0  0
  -38.0957  165.3604   -8.1579 H   0  0  0  0  0  0  0  0  0  0  0  0
  -37.5430  163.6742   -9.9412 H   0  0  0  0  0  0  0  0  0  0  0  0
  -37.7867  160.4519   -7.0406 H   0  0  0  0  0  0  0  0  0  0  0  0
  -39.2314  157.6411   -1.9510 H   0  0  0  0  0  0  0  0  0  0  0  0
  -40.0615  158.3530   -3.3761 H   0  0  0  0  0  0  0  0  0  0  0  0
  -38.2745  158.1705   -3.3761 H   0  0  0  0  0  0  0  0  0  0  0  0
  1  2  1  0
  2  3  1  0
  3  4  1  0
  4  5  1  0
  3  6  1  0
  6  7  1  0
  7  8  1  0
  8  9  1  0
  9 10  2  0
  9 11  1  0
 11 12  2  0
 12 13  1  0
 12 14  1  0
 14 15  1  0
 15 16  1  0
 16 17  2  0
 17 18  1  0
 18 19  2  0
 18 20  1  0
 20 21  1  0
 21 22  1  0
 22 23  2  0
 23 24  1  0
 24 25  1  0
 24 26  2  0
 26 27  1  0
 15 28  2  0
 28 29  1  0
 28 11  1  0
 27 17  1  0
 27 21  2  0
  1 30  1  0
  1 31  1  0
  1 32  1  0
  2 33  1  0
  2 34  1  0
  4 35  1  0
  4 36  1  0
  5 37  1  0
  5 38  1  0
  5 39  1  0
  6 40  1  0
  6 41  1  0
  7 42  1  0
  7 43  1  0
  8 44  1  0
 13 45  1  0
 13 46  1  0
 13 47  1  0
 14 48  1  0
 16 49  1  0
 20 50  1  0
 22 51  1  0
 23 52  1  0
 26 53  1  0
 29 54  1  0
 29 55  1  0
 29 56  1  0
M  END
>  <meeko>  (6) 
{"is_sidechain": false}

>  <vina_affinity_kcal_mol>  (6) 
-9.61

>  <pose_rank>  (6) 
6

$$$$

     RDKit          3D

 56 58  0  0  0  0  0  0  0  0999 V2000
  -34.5260  164.0900  -11.0750 C   0  0  0  0  0  0  0  0  0  0  0  0
  -35.8530  163.5320  -10.5710 C   0  0  0  0  0  0  0  0  0  0  0  0
  -36.9850  164.4530  -10.7510 N   0  0  0  0  0  0  0  0  0  0  0  0
  -36.6430  165.8250  -10.3360 C   0  0  0  0  0  0  0  0  0  0  0  0
  -37.4340  166.3880   -9.1590 C   0  0  0  0  0  0  0  0  0  0  0  0
  -38.2360  163.9800  -10.1350 C   0  0  0  0  0  0  0  0  0  0  0  0
  -38.0780  162.5840   -9.5110 C   0  0  0  0  0  0  0  0  0  0  0  0
  -38.4750  162.5770   -8.1140 N   0  0  0  0  0  0  0  0  0  0  0  0
  -37.5760  162.2370   -7.1260 C   0  0  0  0  0  0  0  0  0  0  0  0
  -36.4510  161.8100   -7.3640 O   0  0  0  0  0  0  0  0  0  0  0  0
  -38.0510  162.4900   -5.7590 C   0  0  0  0  0  0  0  0  0  0  0  0
  -37.8510  163.6320   -4.9930 C   0  0  0  0  0  0  0  0  0  0  0  0
  -37.1740  164.9250   -5.2800 C   0  0  0  0  0  0  0  0  0  0  0  0
  -38.4640  163.4340   -3.7800 N   0  0  0  0  0  0  0  0  0  0  0  0
  -39.1020  162.2210   -3.7390 C   0  0  0  0  0  0  0  0  0  0  0  0
  -39.8540  161.7940   -2.6070 C   0  0  0  0  0  0  0  0  0  0  0  0
  -39.5970  160.8160   -1.7220 C   0  0  0  0  0  0  0  0  0  0  0  0
  -38.4410  159.8470   -1.6170 C   0  0  0  0  0  0  0  0  0  0  0  0
  -37.4630  159.7570   -2.3350 O   0  0  0  0  0  0  0  0  0  0  0  0
  -38.7140  159.0630   -0.5100 N   0  0  0  0  0  0  0  0  0  0  0  0
  -39.9070  159.4320    0.0950 C   0  0  0  0  0  0  0  0  0  0  0  0
  -40.4730  158.8600    1.2190 C   0  0  0  0  0  0  0  0  0  0  0  0
  -41.6860  159.3900    1.6610 C   0  0  0  0  0  0  0  0  0  0  0  0
  -42.2830  160.4580    0.9760 C   0  0  0  0  0  0  0  0  0  0  0  0
  -43.4480  160.9460    1.4220 F   0  0  0  0  0  0  0  0  0  0  0  0
  -41.7000  161.0240   -0.1590 C   0  0  0  0  0  0  0  0  0  0  0  0
  -40.4970  160.4980   -0.5950 C   0  0  0  0  0  0  0  0  0  0  0  0
  -38.8590  161.6020   -4.9620 C   0  0  0  0  0  0  0  0  0  0  0  0
  -39.3390  160.2580   -5.4050 C   0  0  0  0  0  0  0  0  0  0  0  0
  -33.8911  164.3570  -10.2173 H   0  0  0  0  0  0  0  0  0  0  0  0
  -34.0168  163.3298  -11.6856 H   0  0  0  0  0  0  0  0  0  0  0  0
  -34.7131  164.9856  -11.6856 H   0  0  0  0  0  0  0  0  0  0  0  0
  -36.0700  162.6030  -11.1185 H   0  0  0  0  0  0  0  0  0  0  0  0
  -35.7425  163.3640   -9.4895 H   0  0  0  0  0  0  0  0  0  0  0  0
  -35.5779  165.8373  -10.0615 H   0  0  0  0  0  0  0  0  0  0  0  0
  -36.8959  166.4646  -11.1944 H   0  0  0  0  0  0  0  0  0  0  0  0
  -36.9723  166.0594   -8.2162 H   0  0  0  0  0  0  0  0  0  0  0  0
  -37.4292  167.4870   -9.2061 H   0  0  0  0  0  0  0  0  0  0  0  0
  -38.4708  166.0235   -9.2061 H   0  0  0  0  0  0  0  0  0  0  0  0
  -38.5350  164.6888   -9.3487 H   0  0  0  0  0  0  0  0  0  0  0  0
  -39.0001  163.9154  -10.9236 H   0  0  0  0  0  0  0  0  0  0  0  0
  -38.7071  161.8717  -10.0649 H   0  0  0  0  0  0  0  0  0  0  0  0
  -37.0175  162.2979   -9.5697 H   0  0  0  0  0  0  0  0  0  0  0  0
  -39.2130  163.2050   -7.8280 H   0  0  0  0  0  0  0  0  0  0  0  0
  -36.9143  165.4210   -4.3331 H   0  0  0  0  0  0  0  0  0  0  0  0
  -36.2578  164.7385   -5.8595 H   0  0  0  0  0  0  0  0  0  0  0  0
  -37.8492  165.5717   -5.8595 H   0  0  0  0  0  0  0  0  0  0  0  0
  -38.4630  164.1170   -3.0290 H   0  0  0  0  0  0  0  0  0  0  0  0
  -40.7870  162.3493   -2.4305 H   0  0  0  0  0  0  0  0  0  0  0  0
  -38.0980  158.3250   -0.2020 H   0  0  0  0  0  0  0  0  0  0  0  0
  -39.9881  158.0229    1.7426 H   0  0  0  0  0  0  0  0  0  0  0  0
  -42.1760  158.9680    2.5508 H   0  0  0  0  0  0  0  0  0  0  0  0
  -42.1807  161.8597   -0.6887 H   0  0  0  0  0  0  0  0  0  0  0  0
  -39.5602  159.6387   -4.5232 H   0  0  0  0  0  0  0  0  0  0  0  0
  -40.2509  160.3751   -6.0089 H   0  0  0  0  0  0  0  0  0  0  0  0
  -38.5593  159.7709   -6.0089 H   0  0  0  0  0  0  0  0  0  0  0  0
  1  2  1  0
  2  3  1  0
  3  4  1  0
  4  5  1  0
  3  6  1  0
  6  7  1  0
  7  8  1  0
  8  9  1  0
  9 10  2  0
  9 11  1  0
 11 12  2  0
 12 13  1  0
 12 14  1  0
 14 15  1  0
 15 16  1  0
 16 17  2  0
 17 18  1  0
 18 19  2  0
 18 20  1  0
 20 21  1  0
 21 22  1  0
 22 23  2  0
 23 24  1  0
 24 25  1  0
 24 26  2  0
 26 27  1  0
 15 28  2  0
 28 29  1  0
 28 11  1  0
 27 17  1  0
 27 21  2  0
  1 30  1  0
  1 31  1  0
  1 32  1  0
  2 33  1  0
  2 34  1  0
  4 35  1  0
  4 36  1  0
  5 37  1  0
  5 38  1  0
  5 39  1  0
  6 40  1  0
  6 41  1  0
  7 42  1  0
  7 43  1  0
  8 44  1  0
 13 45  1  0
 13 46  1  0
 13 47  1  0
 14 48  1  0
 16 49  1  0
 20 50  1  0
 22 51  1  0
 23 52  1  0
 26 53  1  0
 29 54  1  0
 29 55  1  0
 29 56  1  0
M  END
>  <meeko>  (7) 
{"is_sidechain": false}

>  <vina_affinity_kcal_mol>  (7) 
-9.6

>  <pose_rank>  (7) 
7

$$$$

     RDKit          3D

 56 58  0  0  0  0  0  0  0  0999 V2000
  -41.7420  158.8470    2.1620 C   0  0  0  0  0  0  0  0  0  0  0  0
  -40.4020  158.3890    2.7260 C   0  0  0  0  0  0  0  0  0  0  0  0
  -39.4320  157.9950    1.6930 N   0  0  0  0  0  0  0  0  0  0  0  0
  -38.0520  158.0010    2.2090 C   0  0  0  0  0  0  0  0  0  0  0  0
  -37.8470  157.3730    3.5850 C   0  0  0  0  0  0  0  0  0  0  0  0
  -39.5620  158.7570    0.4400 C   0  0  0  0  0  0  0  0  0  0  0  0
  -38.7890  160.0850    0.4910 C   0  0  0  0  0  0  0  0  0  0  0  0
  -38.5810  160.6300   -0.8380 N   0  0  0  0  0  0  0  0  0  0  0  0
  -39.5400  161.4170   -1.4390 C   0  0  0  0  0  0  0  0  0  0  0  0
  -40.6530  161.6000   -0.9540 O   0  0  0  0  0  0  0  0  0  0  0  0
  -39.1000  162.0760   -2.6750 C   0  0  0  0  0  0  0  0  0  0  0  0
  -38.7270  163.4050   -2.8390 C   0  0  0  0  0  0  0  0  0  0  0  0
  -38.6070  164.5370   -1.8810 C   0  0  0  0  0  0  0  0  0  0  0  0
  -38.3950  163.5850   -4.1590 N   0  0  0  0  0  0  0  0  0  0  0  0
  -38.4900  162.4110   -4.8600 C   0  0  0  0  0  0  0  0  0  0  0  0
  -38.1530  162.3190   -6.2410 C   0  0  0  0  0  0  0  0  0  0  0  0
  -38.0600  163.2850   -7.1710 C   0  0  0  0  0  0  0  0  0  0  0  0
  -38.2750  164.7790   -7.0790 C   0  0  0  0  0  0  0  0  0  0  0  0
  -38.5770  165.4410   -6.1030 O   0  0  0  0  0  0  0  0  0  0  0  0
  -38.0480  165.2650   -8.3540 N   0  0  0  0  0  0  0  0  0  0  0  0
  -37.7110  164.2480   -9.2360 C   0  0  0  0  0  0  0  0  0  0  0  0
  -37.4200  164.3840  -10.5800 C   0  0  0  0  0  0  0  0  0  0  0  0
  -37.1040  163.2220  -11.2840 C   0  0  0  0  0  0  0  0  0  0  0  0
  -37.0900  161.9810  -10.6320 C   0  0  0  0  0  0  0  0  0  0  0  0
  -36.7840  160.8810  -11.3330 F   0  0  0  0  0  0  0  0  0  0  0  0
  -37.3880  161.8580   -9.2740 C   0  0  0  0  0  0  0  0  0  0  0  0
  -37.7000  163.0120   -8.5770 C   0  0  0  0  0  0  0  0  0  0  0  0
  -38.9340  161.4460   -3.9610 C   0  0  0  0  0  0  0  0  0  0  0  0
  -39.1970  160.0030   -4.2420 C   0  0  0  0  0  0  0  0  0  0  0  0
  -42.4274  159.0813    2.9898 H   0  0  0  0  0  0  0  0  0  0  0  0
  -41.5923  159.7450    1.5446 H   0  0  0  0  0  0  0  0  0  0  0  0
  -42.1733  158.0452    1.5446 H   0  0  0  0  0  0  0  0  0  0  0  0
  -39.9707  159.2145    3.3113 H   0  0  0  0  0  0  0  0  0  0  0  0
  -40.5983  157.4982    3.3407 H   0  0  0  0  0  0  0  0  0  0  0  0
  -37.4228  157.4529    1.4923 H   0  0  0  0  0  0  0  0  0  0  0  0
  -37.7846  159.0617    2.3254 H   0  0  0  0  0  0  0  0  0  0  0  0
  -38.0879  158.1109    4.3644 H   0  0  0  0  0  0  0  0  0  0  0  0
  -38.5065  156.4990    3.6911 H   0  0  0  0  0  0  0  0  0  0  0  0
  -36.7989  157.0565    3.6911 H   0  0  0  0  0  0  0  0  0  0  0  0
  -39.1689  158.1488   -0.3880 H   0  0  0  0  0  0  0  0  0  0  0  0
  -40.6270  158.9891    0.2923 H   0  0  0  0  0  0  0  0  0  0  0  0
  -39.3616  160.8093    1.0889 H   0  0  0  0  0  0  0  0  0  0  0  0
  -37.8049  159.8947    0.9442 H   0  0  0  0  0  0  0  0  0  0  0  0
  -37.6310  160.8090   -1.1340 H   0  0  0  0  0  0  0  0  0  0  0  0
  -38.6478  164.1519   -0.8514 H   0  0  0  0  0  0  0  0  0  0  0  0
  -37.6491  165.0533   -2.0416 H   0  0  0  0  0  0  0  0  0  0  0  0
  -39.4354  165.2427   -2.0416 H   0  0  0  0  0  0  0  0  0  0  0  0
  -38.0920  164.4730   -4.5480 H   0  0  0  0  0  0  0  0  0  0  0  0
  -37.9358  161.3026   -6.6012 H   0  0  0  0  0  0  0  0  0  0  0  0
  -38.1210  166.2460   -8.5820 H   0  0  0  0  0  0  0  0  0  0  0  0
  -37.4368  165.3668  -11.0737 H   0  0  0  0  0  0  0  0  0  0  0  0
  -36.8646  163.2797  -12.3561 H   0  0  0  0  0  0  0  0  0  0  0  0
  -37.3753  160.8777   -8.7751 H   0  0  0  0  0  0  0  0  0  0  0  0
  -39.2966  159.4568   -3.2924 H   0  0  0  0  0  0  0  0  0  0  0  0
  -40.1277  159.9058   -4.8203 H   0  0  0  0  0  0  0  0  0  0  0  0
  -38.3605  159.5837   -4.8203 H   0  0  0  0  0  0  0  0  0  0  0  0
  1  2  1  0
  2  3  1  0
  3  4  1  0
  4  5  1  0
  3  6  1  0
  6  7  1  0
  7  8  1  0
  8  9  1  0
  9 10  2  0
  9 11  1  0
 11 12  2  0
 12 13  1  0
 12 14  1  0
 14 15  1  0
 15 16  1  0
 16 17  2  0
 17 18  1  0
 18 19  2  0
 18 20  1  0
 20 21  1  0
 21 22  1  0
 22 23  2  0
 23 24  1  0
 24 25  1  0
 24 26  2  0
 26 27  1  0
 15 28  2  0
 28 29  1  0
 28 11  1  0
 27 17  1  0
 27 21  2  0
  1 30  1  0
  1 31  1  0
  1 32  1  0
  2 33  1  0
  2 34  1  0
  4 35  1  0
  4 36  1  0
  5 37  1  0
  5 38  1  0
  5 39  1  0
  6 40  1  0
  6 41  1  0
  7 42  1  0
  7 43  1  0
  8 44  1  0
 13 45  1  0
 13 46  1  0
 13 47  1  0
 14 48  1  0
 16 49  1  0
 20 50  1  0
 22 51  1  0
 23 52  1  0
 26 53  1  0
 29 54  1  0
 29 55  1  0
 29 56  1  0
M  END
>  <meeko>  (8) 
{"is_sidechain": false}

>  <vina_affinity_kcal_mol>  (8) 
-9.342

>  <pose_rank>  (8) 
8

$$$$

     RDKit          3D

 56 58  0  0  0  0  0  0  0  0999 V2000
  -35.3510  157.7100   -9.5220 C   0  0  0  0  0  0  0  0  0  0  0  0
  -35.9870  158.5010  -10.6600 C   0  0  0  0  0  0  0  0  0  0  0  0
  -36.8700  159.5850  -10.2010 N   0  0  0  0  0  0  0  0  0  0  0  0
  -36.7020  160.8040  -11.0100 C   0  0  0  0  0  0  0  0  0  0  0  0
  -37.9320  161.2730  -11.7830 C   0  0  0  0  0  0  0  0  0  0  0  0
  -36.7720  159.8550   -8.7570 C   0  0  0  0  0  0  0  0  0  0  0  0
  -36.3440  161.3040   -8.4700 C   0  0  0  0  0  0  0  0  0  0  0  0
  -36.7730  161.7340   -7.1520 N   0  0  0  0  0  0  0  0  0  0  0  0
  -37.9150  162.4900   -6.9910 C   0  0  0  0  0  0  0  0  0  0  0  0
  -38.5570  162.9390   -7.9350 O   0  0  0  0  0  0  0  0  0  0  0  0
  -38.3420  162.6580   -5.5960 C   0  0  0  0  0  0  0  0  0  0  0  0
  -38.2160  163.7930   -4.8050 C   0  0  0  0  0  0  0  0  0  0  0  0
  -37.6850  165.1540   -5.0810 C   0  0  0  0  0  0  0  0  0  0  0  0
  -38.7440  163.5010   -3.5710 N   0  0  0  0  0  0  0  0  0  0  0  0
  -39.2560  162.2300   -3.5380 C   0  0  0  0  0  0  0  0  0  0  0  0
  -39.9040  161.6990   -2.3850 C   0  0  0  0  0  0  0  0  0  0  0  0
  -39.5180  160.7130   -1.5580 C   0  0  0  0  0  0  0  0  0  0  0  0
  -38.2840  159.8390   -1.5590 C   0  0  0  0  0  0  0  0  0  0  0  0
  -37.3450  159.8570   -2.3330 O   0  0  0  0  0  0  0  0  0  0  0  0
  -38.4270  158.9930   -0.4730 N   0  0  0  0  0  0  0  0  0  0  0  0
  -39.6090  159.2400    0.2120 C   0  0  0  0  0  0  0  0  0  0  0  0
  -40.0600  158.5810    1.3410 C   0  0  0  0  0  0  0  0  0  0  0  0
  -41.2830  158.9910    1.8710 C   0  0  0  0  0  0  0  0  0  0  0  0
  -42.0040  160.0320    1.2670 C   0  0  0  0  0  0  0  0  0  0  0  0
  -43.1750  160.4050    1.7980 F   0  0  0  0  0  0  0  0  0  0  0  0
  -41.5350  160.6870    0.1270 C   0  0  0  0  0  0  0  0  0  0  0  0
  -40.3220  160.2790   -0.3980 C   0  0  0  0  0  0  0  0  0  0  0  0
  -39.0170  161.6720   -4.7900 C   0  0  0  0  0  0  0  0  0  0  0  0
  -39.3840  160.3000   -5.2520 C   0  0  0  0  0  0  0  0  0  0  0  0
  -35.6831  158.1230   -8.5581 H   0  0  0  0  0  0  0  0  0  0  0  0
  -35.6555  156.6554   -9.5935 H   0  0  0  0  0  0  0  0  0  0  0  0
  -34.2556  157.7810   -9.5935 H   0  0  0  0  0  0  0  0  0  0  0  0
  -35.1838  158.9409  -11.2694 H   0  0  0  0  0  0  0  0  0  0  0  0
  -36.6094  157.7983  -11.2335 H   0  0  0  0  0  0  0  0  0  0  0  0
  -36.4002  161.6172  -10.3335 H   0  0  0  0  0  0  0  0  0  0  0  0
  -35.9525  160.5501  -11.7740 H   0  0  0  0  0  0  0  0  0  0  0  0
  -38.7181  161.5727  -11.0744 H   0  0  0  0  0  0  0  0  0  0  0  0
  -37.6621  162.1313  -12.4158 H   0  0  0  0  0  0  0  0  0  0  0  0
  -38.3021  160.4529  -12.4158 H   0  0  0  0  0  0  0  0  0  0  0  0
  -37.7541  159.6765   -8.2948 H   0  0  0  0  0  0  0  0  0  0  0  0
  -36.0072  159.1851   -8.3370 H   0  0  0  0  0  0  0  0  0  0  0  0
  -35.2476  161.3712   -8.5286 H   0  0  0  0  0  0  0  0  0  0  0  0
  -36.8169  161.9581   -9.2174 H   0  0  0  0  0  0  0  0  0  0  0  0
  -36.5220  161.1580   -6.3600 H   0  0  0  0  0  0  0  0  0  0  0  0
  -37.4841  165.6690   -4.1300 H   0  0  0  0  0  0  0  0  0  0  0  0
  -36.7523  165.0735   -5.6586 H   0  0  0  0  0  0  0  0  0  0  0  0
  -38.4258  165.7264   -5.6586 H   0  0  0  0  0  0  0  0  0  0  0  0
  -38.7710  164.1610   -2.7990 H   0  0  0  0  0  0  0  0  0  0  0  0
  -40.8669  162.1679   -2.1339 H   0  0  0  0  0  0  0  0  0  0  0  0
  -37.7370  158.2980   -0.2320 H   0  0  0  0  0  0  0  0  0  0  0  0
  -39.4790  157.7682    1.8013 H   0  0  0  0  0  0  0  0  0  0  0  0
  -41.6845  158.4956    2.7673 H   0  0  0  0  0  0  0  0  0  0  0  0
  -42.1109  161.5005   -0.3384 H   0  0  0  0  0  0  0  0  0  0  0  0
  -39.5570  159.6532   -4.3792 H   0  0  0  0  0  0  0  0  0  0  0  0
  -40.3003  160.3502   -5.8585 H   0  0  0  0  0  0  0  0  0  0  0  0
  -38.5650  159.8860   -5.8585 H   0  0  0  0  0  0  0  0  0  0  0  0
  1  2  1  0
  2  3  1  0
  3  4  1  0
  4  5  1  0
  3  6  1  0
  6  7  1  0
  7  8  1  0
  8  9  1  0
  9 10  2  0
  9 11  1  0
 11 12  2  0
 12 13  1  0
 12 14  1  0
 14 15  1  0
 15 16  1  0
 16 17  2  0
 17 18  1  0
 18 19  2  0
 18 20  1  0
 20 21  1  0
 21 22  1  0
 22 23  2  0
 23 24  1  0
 24 25  1  0
 24 26  2  0
 26 27  1  0
 15 28  2  0
 28 29  1  0
 28 11  1  0
 27 17  1  0
 27 21  2  0
  1 30  1  0
  1 31  1  0
  1 32  1  0
  2 33  1  0
  2 34  1  0
  4 35  1  0
  4 36  1  0
  5 37  1  0
  5 38  1  0
  5 39  1  0
  6 40  1  0
  6 41  1  0
  7 42  1  0
  7 43  1  0
  8 44  1  0
 13 45  1  0
 13 46  1  0
 13 47  1  0
 14 48  1  0
 16 49  1  0
 20 50  1  0
 22 51  1  0
 23 52  1  0
 26 53  1  0
 29 54  1  0
 29 55  1  0
 29 56  1  0
M  END
>  <meeko>  (9) 
{"is_sidechain": false}

>  <vina_affinity_kcal_mol>  (9) 
-9.324

>  <pose_rank>  (9) 
9

$$$$

     RDKit          3D

 56 58  0  0  0  0  0  0  0  0999 V2000
  -38.5700  158.0050   -1.2650 C   0  0  0  0  0  0  0  0  0  0  0  0
  -39.3250  158.9060   -0.2940 C   0  0  0  0  0  0  0  0  0  0  0  0
  -39.4580  158.3360    1.0550 N   0  0  0  0  0  0  0  0  0  0  0  0
  -40.2780  159.1920    1.9300 C   0  0  0  0  0  0  0  0  0  0  0  0
  -41.6170  158.6100    2.3750 C   0  0  0  0  0  0  0  0  0  0  0  0
  -38.1720  157.9750    1.6740 C   0  0  0  0  0  0  0  0  0  0  0  0
  -38.2500  157.9840    3.2090 C   0  0  0  0  0  0  0  0  0  0  0  0
  -37.3020  157.0530    3.7960 N   0  0  0  0  0  0  0  0  0  0  0  0
  -36.6700  157.3430    4.9860 C   0  0  0  0  0  0  0  0  0  0  0  0
  -36.7700  158.4290    5.5480 O   0  0  0  0  0  0  0  0  0  0  0  0
  -35.9180  156.2220    5.5640 C   0  0  0  0  0  0  0  0  0  0  0  0
  -34.5500  155.9910    5.4850 C   0  0  0  0  0  0  0  0  0  0  0  0
  -33.4370  156.7620    4.8690 C   0  0  0  0  0  0  0  0  0  0  0  0
  -34.2840  154.8270    6.1640 N   0  0  0  0  0  0  0  0  0  0  0  0
  -35.4210  154.3100    6.7290 C   0  0  0  0  0  0  0  0  0  0  0  0
  -35.4070  153.1300    7.5280 C   0  0  0  0  0  0  0  0  0  0  0  0
  -35.0690  151.8730    7.1990 C   0  0  0  0  0  0  0  0  0  0  0  0
  -34.5910  151.2800    5.8920 C   0  0  0  0  0  0  0  0  0  0  0  0
  -34.3980  151.8440    4.8310 O   0  0  0  0  0  0  0  0  0  0  0  0
  -34.4040  149.9310    6.1430 N   0  0  0  0  0  0  0  0  0  0  0  0
  -34.7050  149.6110    7.4600 C   0  0  0  0  0  0  0  0  0  0  0  0
  -34.6250  148.3610    8.0440 C   0  0  0  0  0  0  0  0  0  0  0  0
  -34.9760  148.2630    9.3900 C   0  0  0  0  0  0  0  0  0  0  0  0
  -35.3890  149.4010   10.0980 C   0  0  0  0  0  0  0  0  0  0  0  0
  -35.7210  149.2770   11.3900 F   0  0  0  0  0  0  0  0  0  0  0  0
  -35.4660  150.6570    9.4950 C   0  0  0  0  0  0  0  0  0  0  0  0
  -35.1170  150.7520    8.1600 C   0  0  0  0  0  0  0  0  0  0  0  0
  -36.4650  155.1580    6.3690 C   0  0  0  0  0  0  0  0  0  0  0  0
  -37.9060  155.0230    6.7360 C   0  0  0  0  0  0  0  0  0  0  0  0
  -37.9642  157.2821   -0.6989 H   0  0  0  0  0  0  0  0  0  0  0  0
  -39.2889  157.4646   -1.8983 H   0  0  0  0  0  0  0  0  0  0  0  0
  -37.9121  158.6183   -1.8983 H   0  0  0  0  0  0  0  0  0  0  0  0
  -38.7865  159.8620   -0.2162 H   0  0  0  0  0  0  0  0  0  0  0  0
  -40.3423  159.0305   -0.6936 H   0  0  0  0  0  0  0  0  0  0  0  0
  -39.6897  159.4106    2.8334 H   0  0  0  0  0  0  0  0  0  0  0  0
  -40.5265  160.0783    1.3277 H   0  0  0  0  0  0  0  0  0  0  0  0
  -41.6614  158.5907    3.4739 H   0  0  0  0  0  0  0  0  0  0  0  0
  -42.4353  159.2336    1.9859 H   0  0  0  0  0  0  0  0  0  0  0  0
  -41.7193  157.5862    1.9859 H   0  0  0  0  0  0  0  0  0  0  0  0
  -37.8869  156.9669    1.3387 H   0  0  0  0  0  0  0  0  0  0  0  0
  -37.4252  158.7221    1.3671 H   0  0  0  0  0  0  0  0  0  0  0  0
  -38.0267  158.9980    3.5722 H   0  0  0  0  0  0  0  0  0  0  0  0
  -39.2639  157.6763    3.5047 H   0  0  0  0  0  0  0  0  0  0  0  0
  -37.4210  156.0690    3.6000 H   0  0  0  0  0  0  0  0  0  0  0  0
  -32.8096  157.1966    5.6611 H   0  0  0  0  0  0  0  0  0  0  0  0
  -32.8277  156.0915    4.2452 H   0  0  0  0  0  0  0  0  0  0  0  0
  -33.8506  157.5681    4.2452 H   0  0  0  0  0  0  0  0  0  0  0  0
  -33.3550  154.4260    6.2530 H   0  0  0  0  0  0  0  0  0  0  0  0
  -35.7208  153.2704    8.5729 H   0  0  0  0  0  0  0  0  0  0  0  0
  -34.0810  149.2870    5.4370 H   0  0  0  0  0  0  0  0  0  0  0  0
  -34.2982  147.4805    7.4712 H   0  0  0  0  0  0  0  0  0  0  0  0
  -34.9287  147.2888    9.8987 H   0  0  0  0  0  0  0  0  0  0  0  0
  -35.7930  151.5412   10.0619 H   0  0  0  0  0  0  0  0  0  0  0  0
  -38.0061  155.0136    7.8314 H   0  0  0  0  0  0  0  0  0  0  0  0
  -38.4706  155.8722    6.3235 H   0  0  0  0  0  0  0  0  0  0  0  0
  -38.3030  154.0837    6.3235 H   0  0  0  0  0  0  0  0  0  0  0  0
  1  2  1  0
  2  3  1  0
  3  4  1  0
  4  5  1  0
  3  6  1  0
  6  7  1  0
  7  8  1  0
  8  9  1  0
  9 10  2  0
  9 11  1  0
 11 12  2  0
 12 13  1  0
 12 14  1  0
 14 15  1  0
 15 16  1  0
 16 17  2  0
 17 18  1  0
 18 19  2  0
 18 20  1  0
 20 21  1  0
 21 22  1  0
 22 23  2  0
 23 24  1  0
 24 25  1  0
 24 26  2  0
 26 27  1  0
 15 28  2  0
 28 29  1  0
 28 11  1  0
 27 17  1  0
 27 21  2  0
  1 30  1  0
  1 31  1  0
  1 32  1  0
  2 33  1  0
  2 34  1  0
  4 35  1  0
  4 36  1  0
  5 37  1  0
  5 38  1  0
  5 39  1  0
  6 40  1  0
  6 41  1  0
  7 42  1  0
  7 43  1  0
  8 44  1  0
 13 45  1  0
 13 46  1  0
 13 47  1  0
 14 48  1  0
 16 49  1  0
 20 50  1  0
 22 51  1  0
 23 52  1  0
 26 53  1  0
 29 54  1  0
 29 55  1  0
 29 56  1  0
M  END
>  <meeko>  (10) 
{"is_sidechain": false}

>  <vina_affinity_kcal_mol>  (10) 
-8.867

>  <pose_rank>  (10) 
10

$$$$
