
     RDKit          3D

 25 26  0  0  0  0  0  0  0  0999 V2000
  -38.6580  157.9310    2.9580 C   0  0  0  0  0  0  0  0  0  0  0  0
  -39.6270  158.6020    2.0310 C   0  0  0  0  0  0  0  0  0  0  0  0
  -41.0000  158.6910    2.4560 C   0  0  0  0  0  0  0  0  0  0  0  0
  -41.9060  159.2980    1.6850 C   0  0  0  0  0  0  0  0  0  0  0  0
  -41.5310  159.8800    0.3650 C   0  0  0  0  0  0  0  0  0  0  0  0
  -42.4490  160.3680   -0.2940 O   0  0  0  0  0  0  0  0  0  0  0  0
  -40.1700  159.7750   -0.0050 N   0  0  0  0  0  0  0  0  0  0  0  0
  -39.7220  160.3190   -1.2710 C   0  0  0  0  0  0  0  0  0  0  0  0
  -39.3070  159.4740   -2.3170 C   0  0  0  0  0  0  0  0  0  0  0  0
  -38.8580  159.9870   -3.5390 C   0  0  0  0  0  0  0  0  0  0  0  0
  -38.8080  161.3610   -3.7420 C   0  0  0  0  0  0  0  0  0  0  0  0
  -39.2100  162.2180   -2.7250 C   0  0  0  0  0  0  0  0  0  0  0  0
  -39.6610  161.7020   -1.5040 C   0  0  0  0  0  0  0  0  0  0  0  0
  -39.2690  159.1320    0.8520 C   0  0  0  0  0  0  0  0  0  0  0  0
  -38.9482  158.1319    3.9998 H   0  0  0  0  0  0  0  0  0  0  0  0
  -38.6688  156.8460    2.7771 H   0  0  0  0  0  0  0  0  0  0  0  0
  -37.6462  158.3228    2.7771 H   0  0  0  0  0  0  0  0  0  0  0  0
  -41.3040  158.2571    3.4200 H   0  0  0  0  0  0  0  0  0  0  0  0
  -42.9479  159.3698    2.0304 H   0  0  0  0  0  0  0  0  0  0  0  0
  -39.3363  158.3842   -2.1705 H   0  0  0  0  0  0  0  0  0  0  0  0
  -38.5441  159.3017   -4.3402 H   0  0  0  0  0  0  0  0  0  0  0  0
  -38.4528  161.7669   -4.7007 H   0  0  0  0  0  0  0  0  0  0  0  0
  -39.1738  163.3065   -2.8797 H   0  0  0  0  0  0  0  0  0  0  0  0
  -39.9744  162.3956   -0.7098 H   0  0  0  0  0  0  0  0  0  0  0  0
  -38.2158  159.0578    0.5434 H   0  0  0  0  0  0  0  0  0  0  0  0
  1  2  1  0
  2  3  1  0
  3  4  2  0
  4  5  1  0
  5  6  2  0
  5  7  1  0
  7  8  1  0
  8  9  2  0
  9 10  1  0
 10 11  2  0
 11 12  1  0
 12 13  2  0
  7 14  1  0
 14  2  2  0
 13  8  1  0
  1 15  1  0
  1 16  1  0
  1 17  1  0
  3 18  1  0
  4 19  1  0
  9 20  1  0
 10 21  1  0
 11 22  1  0
 12 23  1  0
 13 24  1  0
 14 25  1  0
M  END
>  <meeko>  (1) 
{"is_sidechain": false}

>  <vina_affinity_kcal_mol>  (1) 
-7.91

>  <pose_rank>  (1) 
1

$$$$

     RDKit          3D

 25 26  0  0  0  0  0  0  0  0999 V2000
  -38.9250  164.6310   -3.6620 C   0  0  0  0  0  0  0  0  0  0  0  0
  -38.9690  163.1450   -3.4670 C   0  0  0  0  0  0  0  0  0  0  0  0
  -38.5710  162.3160   -4.5760 C   0  0  0  0  0  0  0  0  0  0  0  0
  -38.5660  160.9870   -4.4550 C   0  0  0  0  0  0  0  0  0  0  0  0
  -38.9860  160.3240   -3.1880 C   0  0  0  0  0  0  0  0  0  0  0  0
  -39.0000  159.0930   -3.1960 O   0  0  0  0  0  0  0  0  0  0  0  0
  -39.3620  161.1800   -2.1260 N   0  0  0  0  0  0  0  0  0  0  0  0
  -39.7790  160.6160   -0.8580 C   0  0  0  0  0  0  0  0  0  0  0  0
  -38.8350  160.2440    0.1160 C   0  0  0  0  0  0  0  0  0  0  0  0
  -39.2250  159.6840    1.3390 C   0  0  0  0  0  0  0  0  0  0  0  0
  -40.5720  159.4790    1.6130 C   0  0  0  0  0  0  0  0  0  0  0  0
  -41.5250  159.8370    0.6680 C   0  0  0  0  0  0  0  0  0  0  0  0
  -41.1320  160.3980   -0.5520 C   0  0  0  0  0  0  0  0  0  0  0  0
  -39.3380  162.5660   -2.3150 C   0  0  0  0  0  0  0  0  0  0  0  0
  -38.9102  165.1292   -2.6814 H   0  0  0  0  0  0  0  0  0  0  0  0
  -38.0185  164.9004   -4.2238 H   0  0  0  0  0  0  0  0  0  0  0  0
  -39.8140  164.9536   -4.2238 H   0  0  0  0  0  0  0  0  0  0  0  0
  -38.2699  162.7805   -5.5266 H   0  0  0  0  0  0  0  0  0  0  0  0
  -38.2457  160.3690   -5.3068 H   0  0  0  0  0  0  0  0  0  0  0  0
  -37.7648  160.3965   -0.0877 H   0  0  0  0  0  0  0  0  0  0  0  0
  -38.4644  159.4061    2.0835 H   0  0  0  0  0  0  0  0  0  0  0  0
  -40.8812  159.0364    2.5714 H   0  0  0  0  0  0  0  0  0  0  0  0
  -42.5928  159.6789    0.8796 H   0  0  0  0  0  0  0  0  0  0  0  0
  -41.9007  160.6747   -1.2885 H   0  0  0  0  0  0  0  0  0  0  0  0
  -39.6366  163.2130   -1.4770 H   0  0  0  0  0  0  0  0  0  0  0  0
  1  2  1  0
  2  3  1  0
  3  4  2  0
  4  5  1  0
  5  6  2  0
  5  7  1  0
  7  8  1  0
  8  9  2  0
  9 10  1  0
 10 11  2  0
 11 12  1  0
 12 13  2  0
  7 14  1  0
 14  2  2  0
 13  8  1  0
  1 15  1  0
  1 16  1  0
  1 17  1  0
  3 18  1  0
  4 19  1  0
  9 20  1  0
 10 21  1  0
 11 22  1  0
 12 23  1  0
 13 24  1  0
 14 25  1  0
M  END
>  <meeko>  (2) 
{"is_sidechain": false}

>  <vina_affinity_kcal_mol>  (2) 
-7.783

>  <pose_rank>  (2) 
2

$$$$

     RDKit          3D

 25 26  0  0  0  0  0  0  0  0999 V2000
  -39.2030  163.1490   -3.0900 C   0  0  0  0  0  0  0  0  0  0  0  0
  -39.2280  161.7110   -2.6640 C   0  0  0  0  0  0  0  0  0  0  0  0
  -38.5950  160.7500   -3.5300 C   0  0  0  0  0  0  0  0  0  0  0  0
  -38.5630  159.4580   -3.1940 C   0  0  0  0  0  0  0  0  0  0  0  0
  -39.1930  158.9720   -1.9330 C   0  0  0  0  0  0  0  0  0  0  0  0
  -39.1590  157.7570   -1.7410 O   0  0  0  0  0  0  0  0  0  0  0  0
  -39.7960  159.9540   -1.1130 N   0  0  0  0  0  0  0  0  0  0  0  0
  -40.4270  159.5660    0.1330 C   0  0  0  0  0  0  0  0  0  0  0  0
  -41.7870  159.8360    0.3710 C   0  0  0  0  0  0  0  0  0  0  0  0
  -42.4050  159.4800    1.5760 C   0  0  0  0  0  0  0  0  0  0  0  0
  -41.6730  158.8490    2.5740 C   0  0  0  0  0  0  0  0  0  0  0  0
  -40.3280  158.5720    2.3650 C   0  0  0  0  0  0  0  0  0  0  0  0
  -39.7130  158.9270    1.1590 C   0  0  0  0  0  0  0  0  0  0  0  0
  -39.7890  161.2930   -1.5190 C   0  0  0  0  0  0  0  0  0  0  0  0
  -39.1918  163.7950   -2.1997 H   0  0  0  0  0  0  0  0  0  0  0  0
  -38.3014  163.3377   -3.6913 H   0  0  0  0  0  0  0  0  0  0  0  0
  -40.0975  163.3689   -3.6913 H   0  0  0  0  0  0  0  0  0  0  0  0
  -38.1357  161.0819   -4.4728 H   0  0  0  0  0  0  0  0  0  0  0  0
  -38.0628  158.7392   -3.8596 H   0  0  0  0  0  0  0  0  0  0  0  0
  -42.3790  160.3387   -0.4080 H   0  0  0  0  0  0  0  0  0  0  0  0
  -43.4713  159.7002    1.7326 H   0  0  0  0  0  0  0  0  0  0  0  0
  -42.1550  158.5708    3.5228 H   0  0  0  0  0  0  0  0  0  0  0  0
  -39.7436  158.0713    3.1510 H   0  0  0  0  0  0  0  0  0  0  0  0
  -38.6467  158.7003    1.0118 H   0  0  0  0  0  0  0  0  0  0  0  0
  -40.2668  162.0396   -0.8676 H   0  0  0  0  0  0  0  0  0  0  0  0
  1  2  1  0
  2  3  1  0
  3  4  2  0
  4  5  1  0
  5  6  2  0
  5  7  1  0
  7  8  1  0
  8  9  2  0
  9 10  1  0
 10 11  2  0
 11 12  1  0
 12 13  2  0
  7 14  1  0
 14  2  2  0
 13  8  1  0
  1 15  1  0
  1 16  1  0
  1 17  1  0
  3 18  1  0
  4 19  1  0
  9 20  1  0
 10 21  1  0
 11 22  1  0
 12 23  1  0
 13 24  1  0
 14 25  1  0
M  END
>  <meeko>  (3) 
{"is_sidechain": false}

>  <vina_affinity_kcal_mol>  (3) 
-7.644

>  <pose_rank>  (3) 
3

$$$$

     RDKit          3D

 25 26  0  0  0  0  0  0  0  0999 V2000
  -38.0710  162.9370   -8.0230 C   0  0  0  0  0  0  0  0  0  0  0  0
  -38.2640  163.3120   -6.5850 C   0  0  0  0  0  0  0  0  0  0  0  0
  -38.1880  164.7100   -6.2450 C   0  0  0  0  0  0  0  0  0  0  0  0
  -38.3750  165.1090   -4.9850 C   0  0  0  0  0  0  0  0  0  0  0  0
  -38.6460  164.1270   -3.8960 C   0  0  0  0  0  0  0  0  0  0  0  0
  -38.7480  164.5890   -2.7600 O   0  0  0  0  0  0  0  0  0  0  0  0
  -38.7170  162.7670   -4.2790 N   0  0  0  0  0  0  0  0  0  0  0  0
  -38.9810  161.7490   -3.2820 C   0  0  0  0  0  0  0  0  0  0  0  0
  -38.7140  160.3930   -3.5440 C   0  0  0  0  0  0  0  0  0  0  0  0
  -38.9780  159.3980   -2.5940 C   0  0  0  0  0  0  0  0  0  0  0  0
  -39.5220  159.7380   -1.3610 C   0  0  0  0  0  0  0  0  0  0  0  0
  -39.7960  161.0710   -1.0780 C   0  0  0  0  0  0  0  0  0  0  0  0
  -39.5290  162.0630   -2.0280 C   0  0  0  0  0  0  0  0  0  0  0  0
  -38.5190  162.4160   -5.6190 C   0  0  0  0  0  0  0  0  0  0  0  0
  -37.5684  161.9604   -8.0830 H   0  0  0  0  0  0  0  0  0  0  0  0
  -39.0501  162.8767   -8.5208 H   0  0  0  0  0  0  0  0  0  0  0  0
  -37.4529  163.6987   -8.5208 H   0  0  0  0  0  0  0  0  0  0  0  0
  -37.9747  165.4526   -7.0280 H   0  0  0  0  0  0  0  0  0  0  0  0
  -38.3284  166.1816   -4.7456 H   0  0  0  0  0  0  0  0  0  0  0  0
  -38.2881  160.1074   -4.5172 H   0  0  0  0  0  0  0  0  0  0  0  0
  -38.7544  158.3458   -2.8242 H   0  0  0  0  0  0  0  0  0  0  0  0
  -39.7341  158.9581   -0.6148 H   0  0  0  0  0  0  0  0  0  0  0  0
  -40.2245  161.3472   -0.1033 H   0  0  0  0  0  0  0  0  0  0  0  0
  -39.7535  163.1125   -1.7870 H   0  0  0  0  0  0  0  0  0  0  0  0
  -38.5752  161.3525   -5.8944 H   0  0  0  0  0  0  0  0  0  0  0  0
  1  2  1  0
  2  3  1  0
  3  4  2  0
  4  5  1  0
  5  6  2  0
  5  7  1  0
  7  8  1  0
  8  9  2  0
  9 10  1  0
 10 11  2  0
 11 12  1  0
 12 13  2  0
  7 14  1  0
 14  2  2  0
 13  8  1  0
  1 15  1  0
  1 16  1  0
  1 17  1  0
  3 18  1  0
  4 19  1  0
  9 20  1  0
 10 21  1  0
 11 22  1  0
 12 23  1  0
 13 24  1  0
 14 25  1  0
M  END
>  <meeko>  (4) 
{"is_sidechain": false}

>  <vina_affinity_kcal_mol>  (4) 
-7.523

>  <pose_rank>  (4) 
4

$$$$

     RDKit          3D

 25 26  0  0  0  0  0  0  0  0999 V2000
  -38.2340  163.4850   -6.4250 C   0  0  0  0  0  0  0  0  0  0  0  0
  -38.4450  163.3860   -4.9440 C   0  0  0  0  0  0  0  0  0  0  0  0
  -38.4610  164.6140   -4.1900 C   0  0  0  0  0  0  0  0  0  0  0  0
  -38.6690  164.5930   -2.8720 C   0  0  0  0  0  0  0  0  0  0  0  0
  -38.8690  163.3090   -2.1410 C   0  0  0  0  0  0  0  0  0  0  0  0
  -38.9970  163.3920   -0.9200 O   0  0  0  0  0  0  0  0  0  0  0  0
  -38.8520  162.1310   -2.9250 N   0  0  0  0  0  0  0  0  0  0  0  0
  -39.0440  160.8420   -2.2930 C   0  0  0  0  0  0  0  0  0  0  0  0
  -39.9780  160.6750   -1.2540 C   0  0  0  0  0  0  0  0  0  0  0  0
  -40.1620  159.4380   -0.6250 C   0  0  0  0  0  0  0  0  0  0  0  0
  -39.4100  158.3380   -1.0180 C   0  0  0  0  0  0  0  0  0  0  0  0
  -38.4790  158.4750   -2.0410 C   0  0  0  0  0  0  0  0  0  0  0  0
  -38.2990  159.7120   -2.6690 C   0  0  0  0  0  0  0  0  0  0  0  0
  -38.6370  162.2220   -4.3040 C   0  0  0  0  0  0  0  0  0  0  0  0
  -37.2549  163.9444   -6.6260 H   0  0  0  0  0  0  0  0  0  0  0  0
  -38.2646  162.4785   -6.8678 H   0  0  0  0  0  0  0  0  0  0  0  0
  -39.0276  164.1047   -6.8678 H   0  0  0  0  0  0  0  0  0  0  0  0
  -38.3009  165.5735   -4.7035 H   0  0  0  0  0  0  0  0  0  0  0  0
  -38.6934  165.5409   -2.3144 H   0  0  0  0  0  0  0  0  0  0  0  0
  -40.5781  161.5373   -0.9281 H   0  0  0  0  0  0  0  0  0  0  0  0
  -40.9031  159.3368    0.1816 H   0  0  0  0  0  0  0  0  0  0  0  0
  -39.5503  157.3656   -0.5232 H   0  0  0  0  0  0  0  0  0  0  0  0
  -37.8815  157.6075   -2.3580 H   0  0  0  0  0  0  0  0  0  0  0  0
  -37.5569  159.8019   -3.4759 H   0  0  0  0  0  0  0  0  0  0  0  0
  -38.6247  161.2933   -4.8934 H   0  0  0  0  0  0  0  0  0  0  0  0
  1  2  1  0
  2  3  1  0
  3  4  2  0
  4  5  1  0
  5  6  2  0
  5  7  1  0
  7  8  1  0
  8  9  2  0
  9 10  1  0
 10 11  2  0
 11 12  1  0
 12 13  2  0
  7 14  1  0
 14  2  2  0
 13  8  1  0
  1 15  1  0
  1 16  1  0
  1 17  1  0
  3 18  1  0
  4 19  1  0
  9 20  1  0
 10 21  1  0
 11 22  1  0
 12 23  1  0
 13 24  1  0
 14 25  1  0
M  END
>  <meeko>  (5) 
{"is_sidechain": false}

>  <vina_affinity_kcal_mol>  (5) 
-7.431

>  <pose_rank>  (5) 
5

$$$$

     RDKit          3D

 25 26  0  0  0  0  0  0  0  0999 V2000
  -39.1770  157.8070   -2.0200 C   0  0  0  0  0  0  0  0  0  0  0  0
  -39.1200  159.2790   -1.7450 C   0  0  0  0  0  0  0  0  0  0  0  0
  -39.2050  159.7040   -0.3710 C   0  0  0  0  0  0  0  0  0  0  0  0
  -39.1360  161.0000   -0.0610 C   0  0  0  0  0  0  0  0  0  0  0  0
  -38.9880  162.0410   -1.1180 C   0  0  0  0  0  0  0  0  0  0  0  0
  -38.9900  163.2100   -0.7340 O   0  0  0  0  0  0  0  0  0  0  0  0
  -38.9010  161.5750   -2.4510 N   0  0  0  0  0  0  0  0  0  0  0  0
  -38.7520  162.5210   -3.5380 C   0  0  0  0  0  0  0  0  0  0  0  0
  -38.3720  162.0940   -4.8240 C   0  0  0  0  0  0  0  0  0  0  0  0
  -38.2100  163.0000   -5.8790 C   0  0  0  0  0  0  0  0  0  0  0  0
  -38.4200  164.3580   -5.6700 C   0  0  0  0  0  0  0  0  0  0  0  0
  -38.7950  164.8060   -4.4090 C   0  0  0  0  0  0  0  0  0  0  0  0
  -38.9580  163.8980   -3.3570 C   0  0  0  0  0  0  0  0  0  0  0  0
  -38.9740  160.2010   -2.7090 C   0  0  0  0  0  0  0  0  0  0  0  0
  -39.1983  157.2567   -1.0678 H   0  0  0  0  0  0  0  0  0  0  0  0
  -40.0847  157.5767   -2.5970 H   0  0  0  0  0  0  0  0  0  0  0  0
  -38.2898  157.5072   -2.5970 H   0  0  0  0  0  0  0  0  0  0  0  0
  -39.3274  158.9563    0.4265 H   0  0  0  0  0  0  0  0  0  0  0  0
  -39.1893  161.3061    0.9942 H   0  0  0  0  0  0  0  0  0  0  0  0
  -38.1981  161.0229   -5.0046 H   0  0  0  0  0  0  0  0  0  0  0  0
  -37.9161  162.6366   -6.8748 H   0  0  0  0  0  0  0  0  0  0  0  0
  -38.2904  165.0725   -6.4962 H   0  0  0  0  0  0  0  0  0  0  0  0
  -38.9644  165.8792   -4.2372 H   0  0  0  0  0  0  0  0  0  0  0  0
  -39.2543  164.2714   -2.3657 H   0  0  0  0  0  0  0  0  0  0  0  0
  -38.9085  159.8605   -3.7529 H   0  0  0  0  0  0  0  0  0  0  0  0
  1  2  1  0
  2  3  1  0
  3  4  2  0
  4  5  1  0
  5  6  2  0
  5  7  1  0
  7  8  1  0
  8  9  2  0
  9 10  1  0
 10 11  2  0
 11 12  1  0
 12 13  2  0
  7 14  1  0
 14  2  2  0
 13  8  1  0
  1 15  1  0
  1 16  1  0
  1 17  1  0
  3 18  1  0
  4 19  1  0
  9 20  1  0
 10 21  1  0
 11 22  1  0
 12 23  1  0
 13 24  1  0
 14 25  1  0
M  END
>  <meeko>  (6) 
{"is_sidechain": false}

>  <vina_affinity_kcal_mol>  (6) 
-7.302

>  <pose_rank>  (6) 
6

$$$$

     RDKit          3D

 25 26  0  0  0  0  0  0  0  0999 V2000
  -42.4170  160.6180    0.6270 C   0  0  0  0  0  0  0  0  0  0  0  0
  -41.1580  160.2820   -0.1140 C   0  0  0  0  0  0  0  0  0  0  0  0
  -40.3920  159.1550    0.3520 C   0  0  0  0  0  0  0  0  0  0  0  0
  -39.2740  158.7910   -0.2810 C   0  0  0  0  0  0  0  0  0  0  0  0
  -38.7780  159.5460   -1.4670 C   0  0  0  0  0  0  0  0  0  0  0  0
  -37.7090  159.1660   -1.9450 O   0  0  0  0  0  0  0  0  0  0  0  0
  -39.5670  160.6400   -1.8910 N   0  0  0  0  0  0  0  0  0  0  0  0
  -39.1580  161.4230   -3.0390 C   0  0  0  0  0  0  0  0  0  0  0  0
  -39.0170  162.8200   -2.9500 C   0  0  0  0  0  0  0  0  0  0  0  0
  -38.6370  163.5900   -4.0560 C   0  0  0  0  0  0  0  0  0  0  0  0
  -38.3920  162.9790   -5.2800 C   0  0  0  0  0  0  0  0  0  0  0  0
  -38.5250  161.6010   -5.3950 C   0  0  0  0  0  0  0  0  0  0  0  0
  -38.9030  160.8330   -4.2880 C   0  0  0  0  0  0  0  0  0  0  0  0
  -40.7330  160.9650   -1.1880 C   0  0  0  0  0  0  0  0  0  0  0  0
  -42.2296  160.5680    1.7098 H   0  0  0  0  0  0  0  0  0  0  0  0
  -42.7410  161.6341    0.3575 H   0  0  0  0  0  0  0  0  0  0  0  0
  -43.2042  159.8985    0.3575 H   0  0  0  0  0  0  0  0  0  0  0  0
  -40.7297  158.5911    1.2340 H   0  0  0  0  0  0  0  0  0  0  0  0
  -38.7090  157.9186    0.0790 H   0  0  0  0  0  0  0  0  0  0  0  0
  -39.2098  163.3191   -1.9889 H   0  0  0  0  0  0  0  0  0  0  0  0
  -38.5322  164.6804   -3.9559 H   0  0  0  0  0  0  0  0  0  0  0  0
  -38.0951  163.5818   -6.1509 H   0  0  0  0  0  0  0  0  0  0  0  0
  -38.3323  161.1112   -6.3609 H   0  0  0  0  0  0  0  0  0  0  0  0
  -39.0027  159.7431   -4.3983 H   0  0  0  0  0  0  0  0  0  0  0  0
  -41.3300  161.8221   -1.5328 H   0  0  0  0  0  0  0  0  0  0  0  0
  1  2  1  0
  2  3  1  0
  3  4  2  0
  4  5  1  0
  5  6  2  0
  5  7  1  0
  7  8  1  0
  8  9  2  0
  9 10  1  0
 10 11  2  0
 11 12  1  0
 12 13  2  0
  7 14  1  0
 14  2  2  0
 13  8  1  0
  1 15  1  0
  1 16  1  0
  1 17  1  0
  3 18  1  0
  4 19  1  0
  9 20  1  0
 10 21  1  0
 11 22  1  0
 12 23  1  0
 13 24  1  0
 14 25  1  0
M  END
>  <meeko>  (7) 
{"is_sidechain": false}

>  <vina_affinity_kcal_mol>  (7) 
-7.298

>  <pose_rank>  (7) 
7

$$$$

     RDKit          3D

 25 26  0  0  0  0  0  0  0  0999 V2000
  -38.9830  159.8290   -3.1770 C   0  0  0  0  0  0  0  0  0  0  0  0
  -38.8680  161.2980   -3.4540 C   0  0  0  0  0  0  0  0  0  0  0  0
  -38.9910  162.1980   -2.3360 C   0  0  0  0  0  0  0  0  0  0  0  0
  -38.8730  163.5160   -2.5150 C   0  0  0  0  0  0  0  0  0  0  0  0
  -38.6320  164.0930   -3.8680 C   0  0  0  0  0  0  0  0  0  0  0  0
  -38.5940  165.3210   -3.9370 O   0  0  0  0  0  0  0  0  0  0  0  0
  -38.5110  163.1690   -4.9330 N   0  0  0  0  0  0  0  0  0  0  0  0
  -38.2710  163.6470   -6.2800 C   0  0  0  0  0  0  0  0  0  0  0  0
  -37.8360  162.7730   -7.2930 C   0  0  0  0  0  0  0  0  0  0  0  0
  -37.5860  163.2250   -8.5940 C   0  0  0  0  0  0  0  0  0  0  0  0
  -37.7610  164.5670   -8.9110 C   0  0  0  0  0  0  0  0  0  0  0  0
  -38.1890  165.4520   -7.9290 C   0  0  0  0  0  0  0  0  0  0  0  0
  -38.4400  164.9970   -6.6290 C   0  0  0  0  0  0  0  0  0  0  0  0
  -38.6370  161.7990   -4.6770 C   0  0  0  0  0  0  0  0  0  0  0  0
  -38.9962  159.6608   -2.0900 H   0  0  0  0  0  0  0  0  0  0  0  0
  -39.9140  159.4443   -3.6189 H   0  0  0  0  0  0  0  0  0  0  0  0
  -38.1232  159.3041   -3.6189 H   0  0  0  0  0  0  0  0  0  0  0  0
  -39.1831  161.7975   -1.3297 H   0  0  0  0  0  0  0  0  0  0  0  0
  -38.9552  164.1882   -1.6481 H   0  0  0  0  0  0  0  0  0  0  0  0
  -37.6888  161.7087   -7.0570 H   0  0  0  0  0  0  0  0  0  0  0  0
  -37.2506  162.5173   -9.3665 H   0  0  0  0  0  0  0  0  0  0  0  0
  -37.5622  164.9257   -9.9317 H   0  0  0  0  0  0  0  0  0  0  0  0
  -38.3312  166.5149   -8.1741 H   0  0  0  0  0  0  0  0  0  0  0  0
  -38.7769  165.7123   -5.8643 H   0  0  0  0  0  0  0  0  0  0  0  0
  -38.5420  161.0985   -5.5198 H   0  0  0  0  0  0  0  0  0  0  0  0
  1  2  1  0
  2  3  1  0
  3  4  2  0
  4  5  1  0
  5  6  2  0
  5  7  1  0
  7  8  1  0
  8  9  2  0
  9 10  1  0
 10 11  2  0
 11 12  1  0
 12 13  2  0
  7 14  1  0
 14  2  2  0
 13  8  1  0
  1 15  1  0
  1 16  1  0
  1 17  1  0
  3 18  1  0
  4 19  1  0
  9 20  1  0
 10 21  1  0
 11 22  1  0
 12 23  1  0
 13 24  1  0
 14 25  1  0
M  END
>  <meeko>  (8) 
{"is_sidechain": false}

>  <vina_affinity_kcal_mol>  (8) 
-6.85

>  <pose_rank>  (8) 
8

$$$$

     RDKit          3D

 25 26  0  0  0  0  0  0  0  0999 V2000
  -39.0020  158.3460   -2.4000 C   0  0  0  0  0  0  0  0  0  0  0  0
  -38.9850  159.8390   -2.5400 C   0  0  0  0  0  0  0  0  0  0  0  0
  -39.2330  160.6220   -1.3560 C   0  0  0  0  0  0  0  0  0  0  0  0
  -39.2080  161.9550   -1.4120 C   0  0  0  0  0  0  0  0  0  0  0  0
  -38.9440  162.6700   -2.6940 C   0  0  0  0  0  0  0  0  0  0  0  0
  -38.9970  163.8990   -2.6530 O   0  0  0  0  0  0  0  0  0  0  0  0
  -38.6990  161.8580   -3.8270 N   0  0  0  0  0  0  0  0  0  0  0  0
  -38.4300  162.4740   -5.1100 C   0  0  0  0  0  0  0  0  0  0  0  0
  -38.5070  163.8690   -5.2750 C   0  0  0  0  0  0  0  0  0  0  0  0
  -38.2640  164.4750   -6.5140 C   0  0  0  0  0  0  0  0  0  0  0  0
  -37.9420  163.6970   -7.6190 C   0  0  0  0  0  0  0  0  0  0  0  0
  -37.8600  162.3160   -7.4840 C   0  0  0  0  0  0  0  0  0  0  0  0
  -38.1020  161.7140   -6.2440 C   0  0  0  0  0  0  0  0  0  0  0  0
  -38.7330  160.4650   -3.6990 C   0  0  0  0  0  0  0  0  0  0  0  0
  -39.0051  158.0778   -1.3332 H   0  0  0  0  0  0  0  0  0  0  0  0
  -39.9048  157.9428   -2.8821 H   0  0  0  0  0  0  0  0  0  0  0  0
  -38.1086  157.9223   -2.8821 H   0  0  0  0  0  0  0  0  0  0  0  0
  -39.4440  160.1183   -0.4011 H   0  0  0  0  0  0  0  0  0  0  0  0
  -39.3854  162.5372   -0.4957 H   0  0  0  0  0  0  0  0  0  0  0  0
  -38.7641  164.4986   -4.4105 H   0  0  0  0  0  0  0  0  0  0  0  0
  -38.3282  165.5687   -6.6124 H   0  0  0  0  0  0  0  0  0  0  0  0
  -37.7533  164.1705   -8.5938 H   0  0  0  0  0  0  0  0  0  0  0  0
  -37.6041  161.6943   -8.3546 H   0  0  0  0  0  0  0  0  0  0  0  0
  -38.0336  160.6197   -6.1558 H   0  0  0  0  0  0  0  0  0  0  0  0
  -38.5437  159.8531   -4.5933 H   0  0  0  0  0  0  0  0  0  0  0  0
  1  2  1  0
  2  3  1  0
  3  4  2  0
  4  5  1  0
  5  6  2  0
  5  7  1  0
  7  8  1  0
  8  9  2  0
  9 10  1  0
 10 11  2  0
 11 12  1  0
 12 13  2  0
  7 14  1  0
 14  2  2  0
 13  8  1  0
  1 15  1  0
  1 16  1  0
  1 17  1  0
  3 18  1  0
  4 19  1  0
  9 20  1  0
 10 21  1  0
 11 22  1  0
 12 23  1  0
 13 24  1  0
 14 25  1  0
M  END
>  <meeko>  (9) 
{"is_sidechain": false}

>  <vina_affinity_kcal_mol>  (9) 
-6.839

>  <pose_rank>  (9) 
9

$$$$

     RDKit          3D

 25 26  0  0  0  0  0  0  0  0999 V2000
  -42.6080  159.2260    2.4290 C   0  0  0  0  0  0  0  0  0  0  0  0
  -41.2550  159.0970    1.7970 C   0  0  0  0  0  0  0  0  0  0  0  0
  -40.2630  158.3240    2.4990 C   0  0  0  0  0  0  0  0  0  0  0  0
  -39.0470  158.1520    1.9750 C   0  0  0  0  0  0  0  0  0  0  0  0
  -38.6750  158.7660    0.6690 C   0  0  0  0  0  0  0  0  0  0  0  0
  -37.5140  158.5960    0.2990 O   0  0  0  0  0  0  0  0  0  0  0  0
  -39.6850  159.5100    0.0140 N   0  0  0  0  0  0  0  0  0  0  0  0
  -39.4060  160.1360   -1.2630 C   0  0  0  0  0  0  0  0  0  0  0  0
  -39.4340  161.5360   -1.4050 C   0  0  0  0  0  0  0  0  0  0  0  0
  -39.1810  162.1520   -2.6370 C   0  0  0  0  0  0  0  0  0  0  0  0
  -38.9000  161.3800   -3.7580 C   0  0  0  0  0  0  0  0  0  0  0  0
  -38.8680  159.9960   -3.6450 C   0  0  0  0  0  0  0  0  0  0  0  0
  -39.1180  159.3820   -2.4120 C   0  0  0  0  0  0  0  0  0  0  0  0
  -40.9420  159.6460    0.6140 C   0  0  0  0  0  0  0  0  0  0  0  0
  -42.5037  159.2161    3.5240 H   0  0  0  0  0  0  0  0  0  0  0  0
  -43.0714  160.1724    2.1134 H   0  0  0  0  0  0  0  0  0  0  0  0
  -43.2419  158.3842    2.1134 H   0  0  0  0  0  0  0  0  0  0  0  0
  -40.5084  157.8730    3.4718 H   0  0  0  0  0  0  0  0  0  0  0  0
  -38.3062  157.5460    2.5172 H   0  0  0  0  0  0  0  0  0  0  0  0
  -39.6598  162.1607   -0.5282 H   0  0  0  0  0  0  0  0  0  0  0  0
  -39.2047  163.2488   -2.7176 H   0  0  0  0  0  0  0  0  0  0  0  0
  -38.7044  161.8615   -4.7275 H   0  0  0  0  0  0  0  0  0  0  0  0
  -38.6452  159.3796   -4.5284 H   0  0  0  0  0  0  0  0  0  0  0  0
  -39.0882  158.2847   -2.3417 H   0  0  0  0  0  0  0  0  0  0  0  0
  -41.7111  160.2320    0.0896 H   0  0  0  0  0  0  0  0  0  0  0  0
  1  2  1  0
  2  3  1  0
  3  4  2  0
  4  5  1  0
  5  6  2  0
  5  7  1  0
  7  8  1  0
  8  9  2  0
  9 10  1  0
 10 11  2  0
 11 12  1  0
 12 13  2  0
  7 14  1  0
 14  2  2  0
 13  8  1  0
  1 15  1  0
  1 16  1  0
  1 17  1  0
  3 18  1  0
  4 19  1  0
  9 20  1  0
 10 21  1  0
 11 22  1  0
 12 23  1  0
 13 24  1  0
 14 25  1  0
M  END
>  <meeko>  (10) 
{"is_sidechain": false}

>  <vina_affinity_kcal_mol>  (10) 
-6.712

>  <pose_rank>  (10) 
10

$$$$
