
     RDKit          3D

 66 70  0  0  0  0  0  0  0  0999 V2000
    6.4141    2.1422    3.9536 C   0  0  0  0  0  0  0  0  0  0  0  0
    4.9995    1.6959    3.7012 C   0  0  0  0  0  0  0  0  0  0  0  0
    4.1159    1.5578    4.7828 C   0  0  0  0  0  0  0  0  0  0  0  0
    2.7988    1.1416    4.5774 C   0  0  0  0  0  0  0  0  0  0  0  0
    2.3424    0.8651    3.2852 C   0  0  0  0  0  0  0  0  0  0  0  0
    0.9287    0.4288    3.1071 C   0  0  0  0  0  0  0  0  0  0  0  0
    0.4140   -0.2438    3.9916 O   0  0  0  0  0  0  0  0  0  0  0  0
    0.3217    0.8800    1.9486 N   0  0  0  0  0  0  0  0  0  0  0  0
   -0.9847    0.5956    1.4990 C   0  0  0  0  0  0  0  0  0  0  0  0
   -1.4147    1.2453    0.3405 C   0  0  0  0  0  0  0  0  0  0  0  0
   -2.6904    1.0102   -0.1767 C   0  0  0  0  0  0  0  0  0  0  0  0
   -3.5712    0.1135    0.4505 C   0  0  0  0  0  0  0  0  0  0  0  0
   -4.9402   -0.1135   -0.1662 C   0  0  0  0  0  0  0  0  0  0  0  0
   -5.1588   -1.5105   -0.5420 N   0  0  0  0  0  0  0  0  0  0  0  0
   -4.3875   -1.9360   -1.7286 C   0  0  0  0  0  0  0  0  0  0  0  0
   -5.2211   -2.0150   -3.0273 C   0  0  0  0  0  0  0  0  0  0  0  0
   -6.3474   -2.9646   -2.9361 N   0  0  0  0  0  0  0  0  0  0  0  0
   -7.3846   -2.6358   -3.9082 C   0  0  0  0  0  0  0  0  0  0  0  0
   -6.8793   -3.0446   -1.5605 C   0  0  0  0  0  0  0  0  0  0  0  0
   -6.6003   -1.7885   -0.7069 C   0  0  0  0  0  0  0  0  0  0  0  0
   -3.1538   -0.5414    1.6317 C   0  0  0  0  0  0  0  0  0  0  0  0
   -4.0334   -1.5287    2.3767 C   0  0  0  0  0  0  0  0  0  0  0  0
   -3.6666   -1.6727    3.6864 F   0  0  0  0  0  0  0  0  0  0  0  0
   -5.3477   -1.1674    2.4322 F   0  0  0  0  0  0  0  0  0  0  0  0
   -3.9944   -2.7866    1.8580 F   0  0  0  0  0  0  0  0  0  0  0  0
   -1.8539   -0.2949    2.1304 C   0  0  0  0  0  0  0  0  0  0  0  0
    3.2205    0.9764    2.2013 C   0  0  0  0  0  0  0  0  0  0  0  0
    4.5416    1.3950    2.4058 C   0  0  0  0  0  0  0  0  0  0  0  0
    5.4018    1.4986    1.2642 C   0  0  0  0  0  0  0  0  0  0  0  0
    6.1078    1.5788    0.2961 C   0  0  0  0  0  0  0  0  0  0  0  0
    6.9327    1.6659   -0.8552 C   0  0  0  0  0  0  0  0  0  0  0  0
    8.2444    2.0769   -0.9408 C   0  0  0  0  0  0  0  0  0  0  0  0
    8.7038    2.0182   -2.2342 N   0  0  0  0  0  0  0  0  0  0  0  0
    7.6835    1.5721   -2.9372 C   0  0  0  0  0  0  0  0  0  0  0  0
    7.5589    1.3028   -4.3188 C   0  0  0  0  0  0  0  0  0  0  0  0
    6.3942    0.8476   -4.7959 C   0  0  0  0  0  0  0  0  0  0  0  0
    5.2920    0.6563   -3.8224 C   0  0  0  0  0  0  0  0  0  0  0  0
    5.3420    0.8854   -2.5485 N   0  0  0  0  0  0  0  0  0  0  0  0
    6.5690    1.3433   -2.1407 N   0  0  0  0  0  0  0  0  0  0  0  0
    6.6328    3.0555    3.3909 H   0  0  0  0  0  0  0  0  0  0  0  0
    7.1183    1.3556    3.6639 H   0  0  0  0  0  0  0  0  0  0  0  0
    6.5817    2.3629    5.0132 H   0  0  0  0  0  0  0  0  0  0  0  0
    4.4479    1.7697    5.7975 H   0  0  0  0  0  0  0  0  0  0  0  0
    2.1283    1.0341    5.4283 H   0  0  0  0  0  0  0  0  0  0  0  0
    0.8419    1.5422    1.3879 H   0  0  0  0  0  0  0  0  0  0  0  0
   -0.7651    1.9439   -0.1805 H   0  0  0  0  0  0  0  0  0  0  0  0
   -2.9903    1.5298   -1.0848 H   0  0  0  0  0  0  0  0  0  0  0  0
   -5.0885    0.5414   -1.0354 H   0  0  0  0  0  0  0  0  0  0  0  0
   -5.6801    0.2148    0.5755 H   0  0  0  0  0  0  0  0  0  0  0  0
   -3.9805   -2.9333   -1.5155 H   0  0  0  0  0  0  0  0  0  0  0  0
   -3.5145   -1.2969   -1.9031 H   0  0  0  0  0  0  0  0  0  0  0  0
   -4.5694   -2.3242   -3.8528 H   0  0  0  0  0  0  0  0  0  0  0  0
   -5.5786   -1.0029   -3.2624 H   0  0  0  0  0  0  0  0  0  0  0  0
   -8.1662   -3.4035   -3.9104 H   0  0  0  0  0  0  0  0  0  0  0  0
   -7.8533   -1.6671   -3.7014 H   0  0  0  0  0  0  0  0  0  0  0  0
   -6.9684   -2.6096   -4.9215 H   0  0  0  0  0  0  0  0  0  0  0  0
   -6.4091   -3.9087   -1.0728 H   0  0  0  0  0  0  0  0  0  0  0  0
   -7.9556   -3.2580   -1.5603 H   0  0  0  0  0  0  0  0  0  0  0  0
   -7.0463   -1.9255    0.2851 H   0  0  0  0  0  0  0  0  0  0  0  0
   -7.1108   -0.9359   -1.1756 H   0  0  0  0  0  0  0  0  0  0  0  0
   -1.5431   -0.8266    3.0273 H   0  0  0  0  0  0  0  0  0  0  0  0
    2.8984    0.7108    1.1971 H   0  0  0  0  0  0  0  0  0  0  0  0
    8.8859    2.4124   -0.1358 H   0  0  0  0  0  0  0  0  0  0  0  0
    8.4152    1.4705   -4.9618 H   0  0  0  0  0  0  0  0  0  0  0  0
    6.2229    0.6175   -5.8384 H   0  0  0  0  0  0  0  0  0  0  0  0
    4.3493    0.2819   -4.2558 H   0  0  0  0  0  0  0  0  0  0  0  0
  1  2  1  0
  2  3  1  0
  3  4  2  0
  4  5  1  0
  5  6  1  0
  6  7  2  0
  6  8  1  0
  8  9  1  0
  9 10  1  0
 10 11  2  0
 11 12  1  0
 12 13  1  0
 13 14  1  0
 14 15  1  0
 15 16  1  0
 16 17  1  0
 17 18  1  0
 17 19  1  0
 19 20  1  0
 12 21  2  0
 21 22  1  0
 22 23  1  0
 22 24  1  0
 22 25  1  0
 21 26  1  0
  5 27  2  0
 27 28  1  0
 28 29  1  0
 29 30  3  0
 30 31  1  0
 31 32  2  0
 32 33  1  0
 33 34  2  0
 34 35  1  0
 35 36  2  0
 36 37  1  0
 37 38  2  0
 38 39  1  0
 28  2  2  0
 39 31  1  0
 26  9  2  0
 39 34  1  0
 20 14  1  0
  1 40  1  0
  1 41  1  0
  1 42  1  0
  3 43  1  0
  4 44  1  0
  8 45  1  0
 10 46  1  0
 11 47  1  0
 13 48  1  0
 13 49  1  0
 15 50  1  0
 15 51  1  0
 16 52  1  0
 16 53  1  0
 18 54  1  0
 18 55  1  0
 18 56  1  0
 19 57  1  0
 19 58  1  0
 20 59  1  0
 20 60  1  0
 26 61  1  0
 27 62  1  0
 32 63  1  0
 35 64  1  0
 36 65  1  0
 37 66  1  0
M  END
$$$$
