
     RDKit          3D

 66 70  0  0  0  0  0  0  0  0999 V2000
  -41.9850  157.9710    3.1240 C   0  0  0  0  0  0  0  0  0  0  0  0
  -41.2700  158.8240    2.1110 C   0  0  0  0  0  0  0  0  0  0  0  0
  -42.0170  159.6210    1.2310 C   0  0  0  0  0  0  0  0  0  0  0  0
  -41.3790  160.4190    0.2790 C   0  0  0  0  0  0  0  0  0  0  0  0
  -39.9840  160.4380    0.1980 C   0  0  0  0  0  0  0  0  0  0  0  0
  -39.3410  161.3060   -0.8280 C   0  0  0  0  0  0  0  0  0  0  0  0
  -38.8020  162.3420   -0.4560 O   0  0  0  0  0  0  0  0  0  0  0  0
  -39.3870  160.8140   -2.1190 N   0  0  0  0  0  0  0  0  0  0  0  0
  -38.9010  161.4320   -3.2910 C   0  0  0  0  0  0  0  0  0  0  0  0
  -38.3230  160.6040   -4.2550 C   0  0  0  0  0  0  0  0  0  0  0  0
  -37.8290  161.1360   -5.4470 C   0  0  0  0  0  0  0  0  0  0  0  0
  -37.9030  162.5140   -5.7110 C   0  0  0  0  0  0  0  0  0  0  0  0
  -37.3620  163.0340   -7.0300 C   0  0  0  0  0  0  0  0  0  0  0  0
  -37.9810  162.3810   -8.1840 N   0  0  0  0  0  0  0  0  0  0  0  0
  -37.0910  161.4240   -8.8750 C   0  0  0  0  0  0  0  0  0  0  0  0
  -36.4810  161.9670  -10.1870 C   0  0  0  0  0  0  0  0  0  0  0  0
  -37.4980  162.3430  -11.1880 N   0  0  0  0  0  0  0  0  0  0  0  0
  -36.9590  163.3090  -12.1400 C   0  0  0  0  0  0  0  0  0  0  0  0
  -38.7380  162.8260  -10.5460 C   0  0  0  0  0  0  0  0  0  0  0  0
  -38.5290  163.3820   -9.1210 C   0  0  0  0  0  0  0  0  0  0  0  0
  -38.4740  163.3660   -4.7370 C   0  0  0  0  0  0  0  0  0  0  0  0
  -38.6020  164.8660   -4.9330 C   0  0  0  0  0  0  0  0  0  0  0  0
  -37.3900  165.4970   -4.9580 F   0  0  0  0  0  0  0  0  0  0  0  0
  -39.1920  165.2210   -6.1120 F   0  0  0  0  0  0  0  0  0  0  0  0
  -39.3020  165.4830   -3.9420 F   0  0  0  0  0  0  0  0  0  0  0  0
  -38.9780  162.8020   -3.5430 C   0  0  0  0  0  0  0  0  0  0  0  0
  -39.2290  159.6280    1.0540 C   0  0  0  0  0  0  0  0  0  0  0  0
  -39.8680  158.8280    2.0110 C   0  0  0  0  0  0  0  0  0  0  0  0
  -39.0520  158.0210    2.8700 C   0  0  0  0  0  0  0  0  0  0  0  0
  -38.3520  157.3500    3.5790 C   0  0  0  0  0  0  0  0  0  0  0  0
  -37.5150  156.5650    4.4130 C   0  0  0  0  0  0  0  0  0  0  0  0
  -37.8140  155.3920    5.0670 C   0  0  0  0  0  0  0  0  0  0  0  0
  -36.7350  154.9250    5.7780 N   0  0  0  0  0  0  0  0  0  0  0  0
  -35.7790  155.8040    5.5590 C   0  0  0  0  0  0  0  0  0  0  0  0
  -34.4440  155.8530    6.0210 C   0  0  0  0  0  0  0  0  0  0  0  0
  -33.6590  156.8720    5.6490 C   0  0  0  0  0  0  0  0  0  0  0  0
  -34.2570  157.8990    4.7620 C   0  0  0  0  0  0  0  0  0  0  0  0
  -35.4700  157.9120    4.3080 N   0  0  0  0  0  0  0  0  0  0  0  0
  -36.2040  156.8340    4.7310 N   0  0  0  0  0  0  0  0  0  0  0  0
  -41.7108  158.2982    4.1378 H   0  0  0  0  0  0  0  0  0  0  0  0
  -43.0717  158.0726    2.9873 H   0  0  0  0  0  0  0  0  0  0  0  0
  -41.6951  156.9187    2.9873 H   0  0  0  0  0  0  0  0  0  0  0  0
  -43.1153  159.6174    1.2913 H   0  0  0  0  0  0  0  0  0  0  0  0
  -41.9765  161.0347   -0.4094 H   0  0  0  0  0  0  0  0  0  0  0  0
  -39.7490  159.8760   -2.2390 H   0  0  0  0  0  0  0  0  0  0  0  0
  -38.2562  159.5212   -4.0732 H   0  0  0  0  0  0  0  0  0  0  0  0
  -37.3745  160.4658   -6.1916 H   0  0  0  0  0  0  0  0  0  0  0  0
  -37.5563  164.1151   -7.0898 H   0  0  0  0  0  0  0  0  0  0  0  0
  -36.2843  162.8155   -7.0596 H   0  0  0  0  0  0  0  0  0  0  0  0
  -36.2682  161.1627   -8.1933 H   0  0  0  0  0  0  0  0  0  0  0  0
  -37.7082  160.5550   -9.1470 H   0  0  0  0  0  0  0  0  0  0  0  0
  -35.8776  162.8558   -9.9506 H   0  0  0  0  0  0  0  0  0  0  0  0
  -35.8741  161.1604  -10.6241 H   0  0  0  0  0  0  0  0  0  0  0  0
  -36.4940  164.1425  -11.5931 H   0  0  0  0  0  0  0  0  0  0  0  0
  -36.2041  162.8187  -12.7722 H   0  0  0  0  0  0  0  0  0  0  0  0
  -37.7727  163.6939  -12.7722 H   0  0  0  0  0  0  0  0  0  0  0  0
  -39.1628  163.6254  -11.1708 H   0  0  0  0  0  0  0  0  0  0  0  0
  -39.4091  161.9592  -10.4553 H   0  0  0  0  0  0  0  0  0  0  0  0
  -37.8308  164.2303   -9.1750 H   0  0  0  0  0  0  0  0  0  0  0  0
  -39.5151  163.6843   -8.7387 H   0  0  0  0  0  0  0  0  0  0  0  0
  -39.4426  163.4598   -2.7937 H   0  0  0  0  0  0  0  0  0  0  0  0
  -38.1318  159.6193    0.9755 H   0  0  0  0  0  0  0  0  0  0  0  0
  -38.7927  154.8916    5.0259 H   0  0  0  0  0  0  0  0  0  0  0  0
  -34.0542  155.0625    6.6791 H   0  0  0  0  0  0  0  0  0  0  0  0
  -32.6147  156.9442    5.9870 H   0  0  0  0  0  0  0  0  0  0  0  0
  -33.6058  158.7324    4.4596 H   0  0  0  0  0  0  0  0  0  0  0  0
  1  2  1  0
  2  3  1  0
  3  4  2  0
  4  5  1  0
  5  6  1  0
  6  7  2  0
  6  8  1  0
  8  9  1  0
  9 10  1  0
 10 11  2  0
 11 12  1  0
 12 13  1  0
 13 14  1  0
 14 15  1  0
 15 16  1  0
 16 17  1  0
 17 18  1  0
 17 19  1  0
 19 20  1  0
 12 21  2  0
 21 22  1  0
 22 23  1  0
 22 24  1  0
 22 25  1  0
 21 26  1  0
  5 27  2  0
 27 28  1  0
 28 29  1  0
 29 30  3  0
 30 31  1  0
 31 32  2  0
 32 33  1  0
 33 34  2  0
 34 35  1  0
 35 36  2  0
 36 37  1  0
 37 38  2  0
 38 39  1  0
 28  2  2  0
 39 31  1  0
 26  9  2  0
 39 34  1  0
 20 14  1  0
  1 40  1  0
  1 41  1  0
  1 42  1  0
  3 43  1  0
  4 44  1  0
  8 45  1  0
 10 46  1  0
 11 47  1  0
 13 48  1  0
 13 49  1  0
 15 50  1  0
 15 51  1  0
 16 52  1  0
 16 53  1  0
 18 54  1  0
 18 55  1  0
 18 56  1  0
 19 57  1  0
 19 58  1  0
 20 59  1  0
 20 60  1  0
 26 61  1  0
 27 62  1  0
 32 63  1  0
 35 64  1  0
 36 65  1  0
 37 66  1  0
M  END
>  <meeko>  (1) 
{"is_sidechain": false}

>  <vina_affinity_kcal_mol>  (1) 
-12.823

>  <pose_rank>  (1) 
1

$$$$

     RDKit          3D

 66 70  0  0  0  0  0  0  0  0999 V2000
  -42.3410  160.6310    0.1950 C   0  0  0  0  0  0  0  0  0  0  0  0
  -41.1710  159.9400    0.8420 C   0  0  0  0  0  0  0  0  0  0  0  0
  -41.4020  159.0010    1.8590 C   0  0  0  0  0  0  0  0  0  0  0  0
  -40.3350  158.3480    2.4790 C   0  0  0  0  0  0  0  0  0  0  0  0
  -39.0210  158.6190    2.0870 C   0  0  0  0  0  0  0  0  0  0  0  0
  -37.9100  157.8970    2.7700 C   0  0  0  0  0  0  0  0  0  0  0  0
  -36.7630  158.2750    2.5680 O   0  0  0  0  0  0  0  0  0  0  0  0
  -38.3110  156.8780    3.6140 N   0  0  0  0  0  0  0  0  0  0  0  0
  -37.4870  156.0050    4.3560 C   0  0  0  0  0  0  0  0  0  0  0  0
  -37.8560  154.6590    4.3930 C   0  0  0  0  0  0  0  0  0  0  0  0
  -37.0870  153.7290    5.0960 C   0  0  0  0  0  0  0  0  0  0  0  0
  -35.9230  154.1200    5.7770 C   0  0  0  0  0  0  0  0  0  0  0  0
  -35.1190  153.0620    6.5120 C   0  0  0  0  0  0  0  0  0  0  0  0
  -35.9330  151.9090    6.8980 N   0  0  0  0  0  0  0  0  0  0  0  0
  -35.6440  151.4040    8.2570 C   0  0  0  0  0  0  0  0  0  0  0  0
  -34.7790  150.1240    8.2820 C   0  0  0  0  0  0  0  0  0  0  0  0
  -35.4010  148.9900    7.5710 N   0  0  0  0  0  0  0  0  0  0  0  0
  -34.3910  148.0220    7.1530 C   0  0  0  0  0  0  0  0  0  0  0  0
  -36.2320  149.4490    6.4400 C   0  0  0  0  0  0  0  0  0  0  0  0
  -35.8310  150.8350    5.8900 C   0  0  0  0  0  0  0  0  0  0  0  0
  -35.5450  155.4820    5.7590 C   0  0  0  0  0  0  0  0  0  0  0  0
  -34.3020  155.9980    6.4620 C   0  0  0  0  0  0  0  0  0  0  0  0
  -33.1490  155.5160    5.9100 F   0  0  0  0  0  0  0  0  0  0  0  0
  -34.1610  157.3550    6.4090 F   0  0  0  0  0  0  0  0  0  0  0  0
  -34.2390  155.6480    7.7760 F   0  0  0  0  0  0  0  0  0  0  0  0
  -36.3330  156.4030    5.0320 C   0  0  0  0  0  0  0  0  0  0  0  0
  -38.7770  159.5710    1.0910 C   0  0  0  0  0  0  0  0  0  0  0  0
  -39.8470  160.2260    0.4660 C   0  0  0  0  0  0  0  0  0  0  0  0
  -39.5480  161.1890   -0.5520 C   0  0  0  0  0  0  0  0  0  0  0  0
  -39.2770  161.9930   -1.4020 C   0  0  0  0  0  0  0  0  0  0  0  0
  -38.9550  162.9330   -2.4150 C   0  0  0  0  0  0  0  0  0  0  0  0
  -38.7960  164.2960   -2.3010 C   0  0  0  0  0  0  0  0  0  0  0  0
  -38.4790  164.8660   -3.5090 N   0  0  0  0  0  0  0  0  0  0  0  0
  -38.4400  163.8610   -4.3590 C   0  0  0  0  0  0  0  0  0  0  0  0
  -38.1610  163.8310   -5.7440 C   0  0  0  0  0  0  0  0  0  0  0  0
  -38.1860  162.6600   -6.3930 C   0  0  0  0  0  0  0  0  0  0  0  0
  -38.5140  161.4520   -5.5970 C   0  0  0  0  0  0  0  0  0  0  0  0
  -38.7800  161.4140   -4.3300 N   0  0  0  0  0  0  0  0  0  0  0  0
  -38.7280  162.6510   -3.7410 N   0  0  0  0  0  0  0  0  0  0  0  0
  -43.0099  161.0261    0.9737 H   0  0  0  0  0  0  0  0  0  0  0  0
  -41.9774  161.4593   -0.4308 H   0  0  0  0  0  0  0  0  0  0  0  0
  -42.8908  159.9126   -0.4308 H   0  0  0  0  0  0  0  0  0  0  0  0
  -42.4330  158.7774    2.1705 H   0  0  0  0  0  0  0  0  0  0  0  0
  -40.5291  157.6179    3.2786 H   0  0  0  0  0  0  0  0  0  0  0  0
  -39.3050  156.7820    3.7770 H   0  0  0  0  0  0  0  0  0  0  0  0
  -38.7613  154.3277    3.8632 H   0  0  0  0  0  0  0  0  0  0  0  0
  -37.3980  152.6741    5.1165 H   0  0  0  0  0  0  0  0  0  0  0  0
  -34.3066  152.7167    5.8556 H   0  0  0  0  0  0  0  0  0  0  0  0
  -34.7275  153.5188    7.4329 H   0  0  0  0  0  0  0  0  0  0  0  0
  -35.1130  152.1910    8.8126 H   0  0  0  0  0  0  0  0  0  0  0  0
  -36.6111  151.1430    8.7114 H   0  0  0  0  0  0  0  0  0  0  0  0
  -33.8116  150.3461    7.8079 H   0  0  0  0  0  0  0  0  0  0  0  0
  -34.6636  149.8270    9.3349 H   0  0  0  0  0  0  0  0  0  0  0  0
  -33.9230  147.5735    8.0417 H   0  0  0  0  0  0  0  0  0  0  0  0
  -34.8660  147.2332    6.5512 H   0  0  0  0  0  0  0  0  0  0  0  0
  -33.6231  148.5301    6.5512 H   0  0  0  0  0  0  0  0  0  0  0  0
  -36.1443  148.7148    5.6256 H   0  0  0  0  0  0  0  0  0  0  0  0
  -37.2612  149.5411    6.8172 H   0  0  0  0  0  0  0  0  0  0  0  0
  -34.7905  150.7840    5.5367 H   0  0  0  0  0  0  0  0  0  0  0  0
  -36.5301  151.0804    5.0769 H   0  0  0  0  0  0  0  0  0  0  0  0
  -36.0290  157.4596    4.9983 H   0  0  0  0  0  0  0  0  0  0  0  0
  -37.7431  159.8059    0.7978 H   0  0  0  0  0  0  0  0  0  0  0  0
  -38.9087  164.8568   -1.3614 H   0  0  0  0  0  0  0  0  0  0  0  0
  -37.9257  164.7602   -6.2835 H   0  0  0  0  0  0  0  0  0  0  0  0
  -37.9725  162.5966   -7.4702 H   0  0  0  0  0  0  0  0  0  0  0  0
  -38.5332  160.4934   -6.1363 H   0  0  0  0  0  0  0  0  0  0  0  0
  1  2  1  0
  2  3  1  0
  3  4  2  0
  4  5  1  0
  5  6  1  0
  6  7  2  0
  6  8  1  0
  8  9  1  0
  9 10  1  0
 10 11  2  0
 11 12  1  0
 12 13  1  0
 13 14  1  0
 14 15  1  0
 15 16  1  0
 16 17  1  0
 17 18  1  0
 17 19  1  0
 19 20  1  0
 12 21  2  0
 21 22  1  0
 22 23  1  0
 22 24  1  0
 22 25  1  0
 21 26  1  0
  5 27  2  0
 27 28  1  0
 28 29  1  0
 29 30  3  0
 30 31  1  0
 31 32  2  0
 32 33  1  0
 33 34  2  0
 34 35  1  0
 35 36  2  0
 36 37  1  0
 37 38  2  0
 38 39  1  0
 28  2  2  0
 39 31  1  0
 26  9  2  0
 39 34  1  0
 20 14  1  0
  1 40  1  0
  1 41  1  0
  1 42  1  0
  3 43  1  0
  4 44  1  0
  8 45  1  0
 10 46  1  0
 11 47  1  0
 13 48  1  0
 13 49  1  0
 15 50  1  0
 15 51  1  0
 16 52  1  0
 16 53  1  0
 18 54  1  0
 18 55  1  0
 18 56  1  0
 19 57  1  0
 19 58  1  0
 20 59  1  0
 20 60  1  0
 26 61  1  0
 27 62  1  0
 32 63  1  0
 35 64  1  0
 36 65  1  0
 37 66  1  0
M  END
>  <meeko>  (2) 
{"is_sidechain": false}

>  <vina_affinity_kcal_mol>  (2) 
-12.299

>  <pose_rank>  (2) 
2

$$$$

     RDKit          3D

 66 70  0  0  0  0  0  0  0  0999 V2000
  -42.2640  160.2350    0.2210 C   0  0  0  0  0  0  0  0  0  0  0  0
  -41.1030  159.5600    0.9000 C   0  0  0  0  0  0  0  0  0  0  0  0
  -41.2890  158.9720    2.1600 C   0  0  0  0  0  0  0  0  0  0  0  0
  -40.2280  158.3430    2.8150 C   0  0  0  0  0  0  0  0  0  0  0  0
  -38.9660  158.2850    2.2150 C   0  0  0  0  0  0  0  0  0  0  0  0
  -37.8610  157.6010    2.9440 C   0  0  0  0  0  0  0  0  0  0  0  0
  -36.7290  158.0580    2.8420 O   0  0  0  0  0  0  0  0  0  0  0  0
  -38.2530  156.5190    3.7110 N   0  0  0  0  0  0  0  0  0  0  0  0
  -37.4280  155.6630    4.4710 C   0  0  0  0  0  0  0  0  0  0  0  0
  -37.6940  154.2940    4.4010 C   0  0  0  0  0  0  0  0  0  0  0  0
  -36.9160  153.3800    5.1140 C   0  0  0  0  0  0  0  0  0  0  0  0
  -35.8450  153.8100    5.9140 C   0  0  0  0  0  0  0  0  0  0  0  0
  -35.0250  152.7690    6.6540 C   0  0  0  0  0  0  0  0  0  0  0  0
  -35.8210  151.6040    7.0450 N   0  0  0  0  0  0  0  0  0  0  0  0
  -35.7380  151.2830    8.4850 C   0  0  0  0  0  0  0  0  0  0  0  0
  -34.8130  150.0890    8.8110 C   0  0  0  0  0  0  0  0  0  0  0  0
  -35.2330  148.8340    8.1570 N   0  0  0  0  0  0  0  0  0  0  0  0
  -34.1100  147.9100    8.0340 C   0  0  0  0  0  0  0  0  0  0  0  0
  -35.8860  149.0930    6.8570 C   0  0  0  0  0  0  0  0  0  0  0  0
  -35.4810  150.4350    6.2100 C   0  0  0  0  0  0  0  0  0  0  0  0
  -35.5720  155.1940    6.0050 C   0  0  0  0  0  0  0  0  0  0  0  0
  -34.4350  155.7530    6.8390 C   0  0  0  0  0  0  0  0  0  0  0  0
  -34.4050  157.1200    6.8370 F   0  0  0  0  0  0  0  0  0  0  0  0
  -34.5030  155.4200    8.1610 F   0  0  0  0  0  0  0  0  0  0  0  0
  -33.2030  155.3720    6.4020 F   0  0  0  0  0  0  0  0  0  0  0  0
  -36.3670  156.1000    5.2650 C   0  0  0  0  0  0  0  0  0  0  0  0
  -38.7620  158.8890    0.9700 C   0  0  0  0  0  0  0  0  0  0  0  0
  -39.8270  159.5200    0.3110 C   0  0  0  0  0  0  0  0  0  0  0  0
  -39.5710  160.1190   -0.9660 C   0  0  0  0  0  0  0  0  0  0  0  0
  -39.3380  160.6170   -2.0330 C   0  0  0  0  0  0  0  0  0  0  0  0
  -39.0650  161.2170   -3.2900 C   0  0  0  0  0  0  0  0  0  0  0  0
  -38.9450  160.6130   -4.5210 C   0  0  0  0  0  0  0  0  0  0  0  0
  -38.6800  161.5320   -5.5070 N   0  0  0  0  0  0  0  0  0  0  0  0
  -38.6390  162.6930   -4.8860 C   0  0  0  0  0  0  0  0  0  0  0  0
  -38.4110  163.9980   -5.3780 C   0  0  0  0  0  0  0  0  0  0  0  0
  -38.4190  165.0310   -4.5270 C   0  0  0  0  0  0  0  0  0  0  0  0
  -38.6710  164.7280   -3.0970 C   0  0  0  0  0  0  0  0  0  0  0  0
  -38.8850  163.5580   -2.5840 N   0  0  0  0  0  0  0  0  0  0  0  0
  -38.8640  162.5580   -3.5220 N   0  0  0  0  0  0  0  0  0  0  0  0
  -42.9514  160.6347    0.9811 H   0  0  0  0  0  0  0  0  0  0  0  0
  -41.8932  161.0583   -0.4072 H   0  0  0  0  0  0  0  0  0  0  0  0
  -42.7960  159.5054   -0.4072 H   0  0  0  0  0  0  0  0  0  0  0  0
  -42.2798  159.0067    2.6365 H   0  0  0  0  0  0  0  0  0  0  0  0
  -40.3854  157.8918    3.8058 H   0  0  0  0  0  0  0  0  0  0  0  0
  -39.2470  156.3550    3.7970 H   0  0  0  0  0  0  0  0  0  0  0  0
  -38.5250  153.9320    3.7777 H   0  0  0  0  0  0  0  0  0  0  0  0
  -37.1455  152.3062    5.0481 H   0  0  0  0  0  0  0  0  0  0  0  0
  -34.2067  152.4339    5.9997 H   0  0  0  0  0  0  0  0  0  0  0  0
  -34.6417  153.2362    7.5731 H   0  0  0  0  0  0  0  0  0  0  0  0
  -35.3590  152.1690    9.0155 H   0  0  0  0  0  0  0  0  0  0  0  0
  -36.7507  150.9977    8.8061 H   0  0  0  0  0  0  0  0  0  0  0  0
  -33.7943  150.3341    8.4761 H   0  0  0  0  0  0  0  0  0  0  0  0
  -34.8617  149.9242    9.8975 H   0  0  0  0  0  0  0  0  0  0  0  0
  -33.7604  147.6223    9.0365 H   0  0  0  0  0  0  0  0  0  0  0  0
  -34.4323  147.0121    7.4864 H   0  0  0  0  0  0  0  0  0  0  0  0
  -33.2910  148.3992    7.4864 H   0  0  0  0  0  0  0  0  0  0  0  0
  -35.6170  148.2803    6.1662 H   0  0  0  0  0  0  0  0  0  0  0  0
  -36.9681  149.1442    7.0478 H   0  0  0  0  0  0  0  0  0  0  0  0
  -34.3940  150.4289    6.0415 H   0  0  0  0  0  0  0  0  0  0  0  0
  -36.0421  150.5289    5.2685 H   0  0  0  0  0  0  0  0  0  0  0  0
  -36.1434  157.1758    5.3167 H   0  0  0  0  0  0  0  0  0  0  0  0
  -37.7644  158.8690    0.5070 H   0  0  0  0  0  0  0  0  0  0  0  0
  -39.0482  159.5315   -4.6934 H   0  0  0  0  0  0  0  0  0  0  0  0
  -38.2287  164.1632   -6.4501 H   0  0  0  0  0  0  0  0  0  0  0  0
  -38.2461  166.0607   -4.8732 H   0  0  0  0  0  0  0  0  0  0  0  0
  -38.6767  165.5816   -2.4033 H   0  0  0  0  0  0  0  0  0  0  0  0
  1  2  1  0
  2  3  1  0
  3  4  2  0
  4  5  1  0
  5  6  1  0
  6  7  2  0
  6  8  1  0
  8  9  1  0
  9 10  1  0
 10 11  2  0
 11 12  1  0
 12 13  1  0
 13 14  1  0
 14 15  1  0
 15 16  1  0
 16 17  1  0
 17 18  1  0
 17 19  1  0
 19 20  1  0
 12 21  2  0
 21 22  1  0
 22 23  1  0
 22 24  1  0
 22 25  1  0
 21 26  1  0
  5 27  2  0
 27 28  1  0
 28 29  1  0
 29 30  3  0
 30 31  1  0
 31 32  2  0
 32 33  1  0
 33 34  2  0
 34 35  1  0
 35 36  2  0
 36 37  1  0
 37 38  2  0
 38 39  1  0
 28  2  2  0
 39 31  1  0
 26  9  2  0
 39 34  1  0
 20 14  1  0
  1 40  1  0
  1 41  1  0
  1 42  1  0
  3 43  1  0
  4 44  1  0
  8 45  1  0
 10 46  1  0
 11 47  1  0
 13 48  1  0
 13 49  1  0
 15 50  1  0
 15 51  1  0
 16 52  1  0
 16 53  1  0
 18 54  1  0
 18 55  1  0
 18 56  1  0
 19 57  1  0
 19 58  1  0
 20 59  1  0
 20 60  1  0
 26 61  1  0
 27 62  1  0
 32 63  1  0
 35 64  1  0
 36 65  1  0
 37 66  1  0
M  END
>  <meeko>  (3) 
{"is_sidechain": false}

>  <vina_affinity_kcal_mol>  (3) 
-12.231

>  <pose_rank>  (3) 
3

$$$$

     RDKit          3D

 66 70  0  0  0  0  0  0  0  0999 V2000
  -38.3940  164.6570   -6.5560 C   0  0  0  0  0  0  0  0  0  0  0  0
  -38.5180  163.5180   -5.5800 C   0  0  0  0  0  0  0  0  0  0  0  0
  -38.9090  163.7830   -4.2590 C   0  0  0  0  0  0  0  0  0  0  0  0
  -39.0280  162.7450   -3.3320 C   0  0  0  0  0  0  0  0  0  0  0  0
  -38.7660  161.4260   -3.7140 C   0  0  0  0  0  0  0  0  0  0  0  0
  -38.9090  160.3470   -2.6970 C   0  0  0  0  0  0  0  0  0  0  0  0
  -39.0310  159.1930   -3.0890 O   0  0  0  0  0  0  0  0  0  0  0  0
  -38.8460  160.7740   -1.3830 N   0  0  0  0  0  0  0  0  0  0  0  0
  -38.9890  159.9900   -0.2180 C   0  0  0  0  0  0  0  0  0  0  0  0
  -37.8500  159.3340    0.2530 C   0  0  0  0  0  0  0  0  0  0  0  0
  -37.9050  158.5480    1.4050 C   0  0  0  0  0  0  0  0  0  0  0  0
  -39.1040  158.3990    2.1220 C   0  0  0  0  0  0  0  0  0  0  0  0
  -39.1010  157.5440    3.3770 C   0  0  0  0  0  0  0  0  0  0  0  0
  -37.7660  157.0470    3.7110 N   0  0  0  0  0  0  0  0  0  0  0  0
  -37.7090  155.5830    3.9110 C   0  0  0  0  0  0  0  0  0  0  0  0
  -37.6550  155.1520    5.3930 C   0  0  0  0  0  0  0  0  0  0  0  0
  -36.4810  155.6880    6.1110 N   0  0  0  0  0  0  0  0  0  0  0  0
  -36.7260  155.7300    7.5490 C   0  0  0  0  0  0  0  0  0  0  0  0
  -36.0740  157.0040    5.5770 C   0  0  0  0  0  0  0  0  0  0  0  0
  -37.2120  157.7730    4.8710 C   0  0  0  0  0  0  0  0  0  0  0  0
  -40.2690  159.0460    1.6490 C   0  0  0  0  0  0  0  0  0  0  0  0
  -41.6070  158.9480    2.3580 C   0  0  0  0  0  0  0  0  0  0  0  0
  -41.6150  159.6020    3.5580 F   0  0  0  0  0  0  0  0  0  0  0  0
  -42.6430  159.5040    1.6640 F   0  0  0  0  0  0  0  0  0  0  0  0
  -41.9730  157.6690    2.6500 F   0  0  0  0  0  0  0  0  0  0  0  0
  -40.1850  159.8460    0.4860 C   0  0  0  0  0  0  0  0  0  0  0  0
  -38.3520  161.1530   -5.0230 C   0  0  0  0  0  0  0  0  0  0  0  0
  -38.2340  162.1930   -5.9550 C   0  0  0  0  0  0  0  0  0  0  0  0
  -37.8130  161.8640   -7.2850 C   0  0  0  0  0  0  0  0  0  0  0  0
  -37.4570  161.5690   -8.3930 C   0  0  0  0  0  0  0  0  0  0  0  0
  -37.0340  161.2070   -9.6980 C   0  0  0  0  0  0  0  0  0  0  0  0
  -36.8210  162.0230  -10.7870 C   0  0  0  0  0  0  0  0  0  0  0  0
  -36.4080  161.3010  -11.8800 N   0  0  0  0  0  0  0  0  0  0  0  0
  -36.3660  160.0520  -11.4660 C   0  0  0  0  0  0  0  0  0  0  0  0
  -36.0090  158.8640  -12.1430 C   0  0  0  0  0  0  0  0  0  0  0  0
  -36.0490  157.6980  -11.4880 C   0  0  0  0  0  0  0  0  0  0  0  0
  -36.4770  157.7330  -10.0680 C   0  0  0  0  0  0  0  0  0  0  0  0
  -36.8180  158.7850   -9.3930 N   0  0  0  0  0  0  0  0  0  0  0  0
  -36.7440  159.9360  -10.1350 N   0  0  0  0  0  0  0  0  0  0  0  0
  -38.2910  165.6031   -6.0043 H   0  0  0  0  0  0  0  0  0  0  0  0
  -37.5073  164.5030   -7.1885 H   0  0  0  0  0  0  0  0  0  0  0  0
  -39.2931  164.6974   -7.1885 H   0  0  0  0  0  0  0  0  0  0  0  0
  -39.1236  164.8169   -3.9507 H   0  0  0  0  0  0  0  0  0  0  0  0
  -39.3290  162.9662   -2.2974 H   0  0  0  0  0  0  0  0  0  0  0  0
  -38.6040  161.7440   -1.2280 H   0  0  0  0  0  0  0  0  0  0  0  0
  -36.8989  159.4378   -0.2898 H   0  0  0  0  0  0  0  0  0  0  0  0
  -36.9962  158.0377    1.7567 H   0  0  0  0  0  0  0  0  0  0  0  0
  -39.4731  158.1487    4.2172 H   0  0  0  0  0  0  0  0  0  0  0  0
  -39.7459  156.6727    3.1903 H   0  0  0  0  0  0  0  0  0  0  0  0
  -38.6042  155.1365    3.4535 H   0  0  0  0  0  0  0  0  0  0  0  0
  -36.7757  155.2347    3.4446 H   0  0  0  0  0  0  0  0  0  0  0  0
  -38.5658  155.5104    5.8950 H   0  0  0  0  0  0  0  0  0  0  0  0
  -37.5779  154.0549    5.4124 H   0  0  0  0  0  0  0  0  0  0  0  0
  -35.7803  155.5679    8.0870 H   0  0  0  0  0  0  0  0  0  0  0  0
  -37.1395  156.7121    7.8220 H   0  0  0  0  0  0  0  0  0  0  0  0
  -37.4429  154.9416    7.8220 H   0  0  0  0  0  0  0  0  0  0  0  0
  -35.7075  157.6183    6.4126 H   0  0  0  0  0  0  0  0  0  0  0  0
  -35.2991  156.8150    4.8195 H   0  0  0  0  0  0  0  0  0  0  0  0
  -38.0212  157.9449    5.5960 H   0  0  0  0  0  0  0  0  0  0  0  0
  -36.7885  158.7167    4.4968 H   0  0  0  0  0  0  0  0  0  0  0  0
  -41.0847  160.3676    0.1275 H   0  0  0  0  0  0  0  0  0  0  0  0
  -38.1188  160.1201   -5.3208 H   0  0  0  0  0  0  0  0  0  0  0  0
  -36.9635  163.1137  -10.7820 H   0  0  0  0  0  0  0  0  0  0  0  0
  -35.7011  158.8976  -13.1985 H   0  0  0  0  0  0  0  0  0  0  0  0
  -35.7761  156.7535  -11.9815 H   0  0  0  0  0  0  0  0  0  0  0  0
  -36.5079  156.7709   -9.5357 H   0  0  0  0  0  0  0  0  0  0  0  0
  1  2  1  0
  2  3  1  0
  3  4  2  0
  4  5  1  0
  5  6  1  0
  6  7  2  0
  6  8  1  0
  8  9  1  0
  9 10  1  0
 10 11  2  0
 11 12  1  0
 12 13  1  0
 13 14  1  0
 14 15  1  0
 15 16  1  0
 16 17  1  0
 17 18  1  0
 17 19  1  0
 19 20  1  0
 12 21  2  0
 21 22  1  0
 22 23  1  0
 22 24  1  0
 22 25  1  0
 21 26  1  0
  5 27  2  0
 27 28  1  0
 28 29  1  0
 29 30  3  0
 30 31  1  0
 31 32  2  0
 32 33  1  0
 33 34  2  0
 34 35  1  0
 35 36  2  0
 36 37  1  0
 37 38  2  0
 38 39  1  0
 28  2  2  0
 39 31  1  0
 26  9  2  0
 39 34  1  0
 20 14  1  0
  1 40  1  0
  1 41  1  0
  1 42  1  0
  3 43  1  0
  4 44  1  0
  8 45  1  0
 10 46  1  0
 11 47  1  0
 13 48  1  0
 13 49  1  0
 15 50  1  0
 15 51  1  0
 16 52  1  0
 16 53  1  0
 18 54  1  0
 18 55  1  0
 18 56  1  0
 19 57  1  0
 19 58  1  0
 20 59  1  0
 20 60  1  0
 26 61  1  0
 27 62  1  0
 32 63  1  0
 35 64  1  0
 36 65  1  0
 37 66  1  0
M  END
>  <meeko>  (4) 
{"is_sidechain": false}

>  <vina_affinity_kcal_mol>  (4) 
-11.376

>  <pose_rank>  (4) 
4

$$$$

     RDKit          3D

 66 70  0  0  0  0  0  0  0  0999 V2000
  -41.7580  158.6480    2.7040 C   0  0  0  0  0  0  0  0  0  0  0  0
  -40.9380  159.0820    1.5190 C   0  0  0  0  0  0  0  0  0  0  0  0
  -41.5620  159.7620    0.4620 C   0  0  0  0  0  0  0  0  0  0  0  0
  -40.8260  160.1730   -0.6520 C   0  0  0  0  0  0  0  0  0  0  0  0
  -39.4530  159.9160   -0.7220 C   0  0  0  0  0  0  0  0  0  0  0  0
  -38.7030  160.3740   -1.9240 C   0  0  0  0  0  0  0  0  0  0  0  0
  -37.7610  159.6950   -2.3140 O   0  0  0  0  0  0  0  0  0  0  0  0
  -39.1920  161.5280   -2.5110 N   0  0  0  0  0  0  0  0  0  0  0  0
  -38.6650  162.2120   -3.6270 C   0  0  0  0  0  0  0  0  0  0  0  0
  -38.7800  163.6030   -3.6340 C   0  0  0  0  0  0  0  0  0  0  0  0
  -38.2750  164.3550   -4.6970 C   0  0  0  0  0  0  0  0  0  0  0  0
  -37.6350  163.7340   -5.7820 C   0  0  0  0  0  0  0  0  0  0  0  0
  -37.0920  164.6030   -6.9020 C   0  0  0  0  0  0  0  0  0  0  0  0
  -38.1230  164.9740   -7.8720 N   0  0  0  0  0  0  0  0  0  0  0  0
  -38.5360  163.8630   -8.7550 C   0  0  0  0  0  0  0  0  0  0  0  0
  -37.9340  163.9310  -10.1760 C   0  0  0  0  0  0  0  0  0  0  0  0
  -38.3000  165.1630  -10.9030 N   0  0  0  0  0  0  0  0  0  0  0  0
  -37.3340  165.4510  -11.9580 C   0  0  0  0  0  0  0  0  0  0  0  0
  -38.4750  166.3040   -9.9820 C   0  0  0  0  0  0  0  0  0  0  0  0
  -37.7070  166.1580   -8.6510 C   0  0  0  0  0  0  0  0  0  0  0  0
  -37.5230  162.3240   -5.7950 C   0  0  0  0  0  0  0  0  0  0  0  0
  -36.8450  161.5650   -6.9210 C   0  0  0  0  0  0  0  0  0  0  0  0
  -35.9290  160.6590   -6.4650 F   0  0  0  0  0  0  0  0  0  0  0  0
  -37.7020  160.8240   -7.6820 F   0  0  0  0  0  0  0  0  0  0  0  0
  -36.1550  162.3680   -7.7760 F   0  0  0  0  0  0  0  0  0  0  0  0
  -38.0330  161.5860   -4.7020 C   0  0  0  0  0  0  0  0  0  0  0  0
  -38.8250  159.2170    0.3150 C   0  0  0  0  0  0  0  0  0  0  0  0
  -39.5620  158.8060    1.4340 C   0  0  0  0  0  0  0  0  0  0  0  0
  -38.8740  158.0990    2.4730 C   0  0  0  0  0  0  0  0  0  0  0  0
  -38.2810  157.5060    3.3330 C   0  0  0  0  0  0  0  0  0  0  0  0
  -37.5680  156.8120    4.3440 C   0  0  0  0  0  0  0  0  0  0  0  0
  -38.0010  155.7770    5.1420 C   0  0  0  0  0  0  0  0  0  0  0  0
  -37.0160  155.3620    6.0040 N   0  0  0  0  0  0  0  0  0  0  0  0
  -35.9830  156.1340    5.7360 C   0  0  0  0  0  0  0  0  0  0  0  0
  -34.6860  156.1730    6.2970 C   0  0  0  0  0  0  0  0  0  0  0  0
  -33.8020  157.0690    5.8420 C   0  0  0  0  0  0  0  0  0  0  0  0
  -34.2540  157.9790    4.7620 C   0  0  0  0  0  0  0  0  0  0  0  0
  -35.4260  157.9960    4.2090 N   0  0  0  0  0  0  0  0  0  0  0  0
  -36.2680  157.0460    4.7280 N   0  0  0  0  0  0  0  0  0  0  0  0
  -41.2360  158.9243    3.6320 H   0  0  0  0  0  0  0  0  0  0  0  0
  -42.7388  159.1451    2.6730 H   0  0  0  0  0  0  0  0  0  0  0  0
  -41.8985  157.5574    2.6730 H   0  0  0  0  0  0  0  0  0  0  0  0
  -42.6404  159.9733    0.5110 H   0  0  0  0  0  0  0  0  0  0  0  0
  -41.3279  160.7004   -1.4766 H   0  0  0  0  0  0  0  0  0  0  0  0
  -40.0620  161.8920   -2.1470 H   0  0  0  0  0  0  0  0  0  0  0  0
  -39.2737  164.1124   -2.7933 H   0  0  0  0  0  0  0  0  0  0  0  0
  -38.3801  165.4499   -4.6843 H   0  0  0  0  0  0  0  0  0  0  0  0
  -36.6721  165.5209   -6.4647 H   0  0  0  0  0  0  0  0  0  0  0  0
  -36.3248  164.0219   -7.4347 H   0  0  0  0  0  0  0  0  0  0  0  0
  -38.2205  162.9170   -8.2908 H   0  0  0  0  0  0  0  0  0  0  0  0
  -39.6276  163.9365   -8.8686 H   0  0  0  0  0  0  0  0  0  0  0  0
  -36.8380  163.8856  -10.0942 H   0  0  0  0  0  0  0  0  0  0  0  0
  -38.3407  163.0819  -10.7449 H   0  0  0  0  0  0  0  0  0  0  0  0
  -36.3727  165.7376  -11.5067 H   0  0  0  0  0  0  0  0  0  0  0  0
  -37.1939  164.5556  -12.5813 H   0  0  0  0  0  0  0  0  0  0  0  0
  -37.7072  166.2770  -12.5813 H   0  0  0  0  0  0  0  0  0  0  0  0
  -38.1212  167.2145  -10.4877 H   0  0  0  0  0  0  0  0  0  0  0  0
  -39.5447  166.3490   -9.7297 H   0  0  0  0  0  0  0  0  0  0  0  0
  -36.6332  166.0718   -8.8734 H   0  0  0  0  0  0  0  0  0  0  0  0
  -37.9300  167.0471   -8.0430 H   0  0  0  0  0  0  0  0  0  0  0  0
  -37.9289  160.4909   -4.6991 H   0  0  0  0  0  0  0  0  0  0  0  0
  -37.7506  158.9896    0.2517 H   0  0  0  0  0  0  0  0  0  0  0  0
  -39.0085  155.3381    5.0950 H   0  0  0  0  0  0  0  0  0  0  0  0
  -34.4062  155.4742    7.0991 H   0  0  0  0  0  0  0  0  0  0  0  0
  -32.7830  157.1279    6.2520 H   0  0  0  0  0  0  0  0  0  0  0  0
  -33.5218  158.7126    4.3936 H   0  0  0  0  0  0  0  0  0  0  0  0
  1  2  1  0
  2  3  1  0
  3  4  2  0
  4  5  1  0
  5  6  1  0
  6  7  2  0
  6  8  1  0
  8  9  1  0
  9 10  1  0
 10 11  2  0
 11 12  1  0
 12 13  1  0
 13 14  1  0
 14 15  1  0
 15 16  1  0
 16 17  1  0
 17 18  1  0
 17 19  1  0
 19 20  1  0
 12 21  2  0
 21 22  1  0
 22 23  1  0
 22 24  1  0
 22 25  1  0
 21 26  1  0
  5 27  2  0
 27 28  1  0
 28 29  1  0
 29 30  3  0
 30 31  1  0
 31 32  2  0
 32 33  1  0
 33 34  2  0
 34 35  1  0
 35 36  2  0
 36 37  1  0
 37 38  2  0
 38 39  1  0
 28  2  2  0
 39 31  1  0
 26  9  2  0
 39 34  1  0
 20 14  1  0
  1 40  1  0
  1 41  1  0
  1 42  1  0
  3 43  1  0
  4 44  1  0
  8 45  1  0
 10 46  1  0
 11 47  1  0
 13 48  1  0
 13 49  1  0
 15 50  1  0
 15 51  1  0
 16 52  1  0
 16 53  1  0
 18 54  1  0
 18 55  1  0
 18 56  1  0
 19 57  1  0
 19 58  1  0
 20 59  1  0
 20 60  1  0
 26 61  1  0
 27 62  1  0
 32 63  1  0
 35 64  1  0
 36 65  1  0
 37 66  1  0
M  END
>  <meeko>  (5) 
{"is_sidechain": false}

>  <vina_affinity_kcal_mol>  (5) 
-11.373

>  <pose_rank>  (5) 
5

$$$$

     RDKit          3D

 66 70  0  0  0  0  0  0  0  0999 V2000
  -35.8970  152.4170    7.7370 C   0  0  0  0  0  0  0  0  0  0  0  0
  -36.3260  153.6020    6.9140 C   0  0  0  0  0  0  0  0  0  0  0  0
  -35.6350  154.8170    7.0420 C   0  0  0  0  0  0  0  0  0  0  0  0
  -36.0150  155.9330    6.2940 C   0  0  0  0  0  0  0  0  0  0  0  0
  -37.0860  155.8490    5.3990 C   0  0  0  0  0  0  0  0  0  0  0  0
  -37.4560  157.0610    4.6150 C   0  0  0  0  0  0  0  0  0  0  0  0
  -37.0600  158.1510    5.0110 O   0  0  0  0  0  0  0  0  0  0  0  0
  -38.1910  156.8110    3.4710 N   0  0  0  0  0  0  0  0  0  0  0  0
  -38.7120  157.7580    2.5630 C   0  0  0  0  0  0  0  0  0  0  0  0
  -37.8100  158.3580    1.6810 C   0  0  0  0  0  0  0  0  0  0  0  0
  -38.2470  159.2960    0.7450 C   0  0  0  0  0  0  0  0  0  0  0  0
  -39.6020  159.6570    0.6590 C   0  0  0  0  0  0  0  0  0  0  0  0
  -40.0210  160.6710   -0.3890 C   0  0  0  0  0  0  0  0  0  0  0  0
  -38.9130  161.0660   -1.2600 N   0  0  0  0  0  0  0  0  0  0  0  0
  -39.0620  162.4190   -1.8360 C   0  0  0  0  0  0  0  0  0  0  0  0
  -39.5190  162.4280   -3.3120 C   0  0  0  0  0  0  0  0  0  0  0  0
  -38.5860  161.7230   -4.2120 N   0  0  0  0  0  0  0  0  0  0  0  0
  -39.2660  161.2870   -5.4280 C   0  0  0  0  0  0  0  0  0  0  0  0
  -37.9080  160.6050   -3.5240 C   0  0  0  0  0  0  0  0  0  0  0  0
  -38.6870  160.0530   -2.3100 C   0  0  0  0  0  0  0  0  0  0  0  0
  -40.5240  159.0670    1.5540 C   0  0  0  0  0  0  0  0  0  0  0  0
  -42.0070  159.3900    1.5360 C   0  0  0  0  0  0  0  0  0  0  0  0
  -42.7520  158.4750    2.2260 F   0  0  0  0  0  0  0  0  0  0  0  0
  -42.3200  160.5850    2.1160 F   0  0  0  0  0  0  0  0  0  0  0  0
  -42.5410  159.4100    0.2840 F   0  0  0  0  0  0  0  0  0  0  0  0
  -40.0590  158.1110    2.4870 C   0  0  0  0  0  0  0  0  0  0  0  0
  -37.7970  154.6500    5.2800 C   0  0  0  0  0  0  0  0  0  0  0  0
  -37.4160  153.5280    6.0300 C   0  0  0  0  0  0  0  0  0  0  0  0
  -38.1720  152.3210    5.8690 C   0  0  0  0  0  0  0  0  0  0  0  0
  -38.8170  151.3190    5.7230 C   0  0  0  0  0  0  0  0  0  0  0  0
  -39.5780  150.1360    5.5360 C   0  0  0  0  0  0  0  0  0  0  0  0
  -40.3650  149.4700    6.4480 C   0  0  0  0  0  0  0  0  0  0  0  0
  -40.9510  148.3600    5.8890 N   0  0  0  0  0  0  0  0  0  0  0  0
  -40.5280  148.3460    4.6420 C   0  0  0  0  0  0  0  0  0  0  0  0
  -40.7970  147.4480    3.5840 C   0  0  0  0  0  0  0  0  0  0  0  0
  -40.2340  147.6560    2.3880 C   0  0  0  0  0  0  0  0  0  0  0  0
  -39.3470  148.8370    2.2540 C   0  0  0  0  0  0  0  0  0  0  0  0
  -39.0590  149.6940    3.1820 N   0  0  0  0  0  0  0  0  0  0  0  0
  -39.6790  149.4110    4.3720 N   0  0  0  0  0  0  0  0  0  0  0  0
  -35.9855  152.6615    8.8058 H   0  0  0  0  0  0  0  0  0  0  0  0
  -36.5405  151.5560    7.5033 H   0  0  0  0  0  0  0  0  0  0  0  0
  -34.8515  152.1675    7.5033 H   0  0  0  0  0  0  0  0  0  0  0  0
  -34.7863  154.8906    7.7380 H   0  0  0  0  0  0  0  0  0  0  0  0
  -35.4700  156.8815    6.4092 H   0  0  0  0  0  0  0  0  0  0  0  0
  -38.3190  155.8420    3.2110 H   0  0  0  0  0  0  0  0  0  0  0  0
  -36.7445  158.0883    1.7248 H   0  0  0  0  0  0  0  0  0  0  0  0
  -37.5189  159.7603    0.0635 H   0  0  0  0  0  0  0  0  0  0  0  0
  -40.8167  160.2307   -1.0078 H   0  0  0  0  0  0  0  0  0  0  0  0
  -40.3702  161.5715    0.1374 H   0  0  0  0  0  0  0  0  0  0  0  0
  -39.8060  162.9683   -1.2404 H   0  0  0  0  0  0  0  0  0  0  0  0
  -38.0671  162.8874   -1.8085 H   0  0  0  0  0  0  0  0  0  0  0  0
  -40.5030  161.9406   -3.3766 H   0  0  0  0  0  0  0  0  0  0  0  0
  -39.5569  163.4783   -3.6368 H   0  0  0  0  0  0  0  0  0  0  0  0
  -40.1640  160.7112   -5.1596 H   0  0  0  0  0  0  0  0  0  0  0  0
  -39.5580  162.1667   -6.0203 H   0  0  0  0  0  0  0  0  0  0  0  0
  -38.5884  160.6546   -6.0203 H   0  0  0  0  0  0  0  0  0  0  0  0
  -37.7680  159.7875   -4.2466 H   0  0  0  0  0  0  0  0  0  0  0  0
  -36.9546  160.9972   -3.1403 H   0  0  0  0  0  0  0  0  0  0  0  0
  -39.6635  159.6851   -2.6580 H   0  0  0  0  0  0  0  0  0  0  0  0
  -38.0796  159.2500   -1.8670 H   0  0  0  0  0  0  0  0  0  0  0  0
  -40.7777  157.6341    3.1696 H   0  0  0  0  0  0  0  0  0  0  0  0
  -38.6567  154.5872    4.5967 H   0  0  0  0  0  0  0  0  0  0  0  0
  -40.5068  149.7863    7.4920 H   0  0  0  0  0  0  0  0  0  0  0  0
  -41.4626  146.5867    3.7423 H   0  0  0  0  0  0  0  0  0  0  0  0
  -40.4211  146.9800    1.5406 H   0  0  0  0  0  0  0  0  0  0  0  0
  -38.8877  149.0018    1.2682 H   0  0  0  0  0  0  0  0  0  0  0  0
  1  2  1  0
  2  3  1  0
  3  4  2  0
  4  5  1  0
  5  6  1  0
  6  7  2  0
  6  8  1  0
  8  9  1  0
  9 10  1  0
 10 11  2  0
 11 12  1  0
 12 13  1  0
 13 14  1  0
 14 15  1  0
 15 16  1  0
 16 17  1  0
 17 18  1  0
 17 19  1  0
 19 20  1  0
 12 21  2  0
 21 22  1  0
 22 23  1  0
 22 24  1  0
 22 25  1  0
 21 26  1  0
  5 27  2  0
 27 28  1  0
 28 29  1  0
 29 30  3  0
 30 31  1  0
 31 32  2  0
 32 33  1  0
 33 34  2  0
 34 35  1  0
 35 36  2  0
 36 37  1  0
 37 38  2  0
 38 39  1  0
 28  2  2  0
 39 31  1  0
 26  9  2  0
 39 34  1  0
 20 14  1  0
  1 40  1  0
  1 41  1  0
  1 42  1  0
  3 43  1  0
  4 44  1  0
  8 45  1  0
 10 46  1  0
 11 47  1  0
 13 48  1  0
 13 49  1  0
 15 50  1  0
 15 51  1  0
 16 52  1  0
 16 53  1  0
 18 54  1  0
 18 55  1  0
 18 56  1  0
 19 57  1  0
 19 58  1  0
 20 59  1  0
 20 60  1  0
 26 61  1  0
 27 62  1  0
 32 63  1  0
 35 64  1  0
 36 65  1  0
 37 66  1  0
M  END
>  <meeko>  (6) 
{"is_sidechain": false}

>  <vina_affinity_kcal_mol>  (6) 
-10.535

>  <pose_rank>  (6) 
6

$$$$

     RDKit          3D

 66 70  0  0  0  0  0  0  0  0999 V2000
  -36.5960  158.8370    5.7480 C   0  0  0  0  0  0  0  0  0  0  0  0
  -36.7560  157.3420    5.8170 C   0  0  0  0  0  0  0  0  0  0  0  0
  -36.2490  156.6450    6.9250 C   0  0  0  0  0  0  0  0  0  0  0  0
  -36.3800  155.2580    7.0120 C   0  0  0  0  0  0  0  0  0  0  0  0
  -37.0270  154.5460    5.9970 C   0  0  0  0  0  0  0  0  0  0  0  0
  -37.1510  153.0680    6.1310 C   0  0  0  0  0  0  0  0  0  0  0  0
  -36.7630  152.5450    7.1690 O   0  0  0  0  0  0  0  0  0  0  0  0
  -37.7450  152.4340    5.0550 N   0  0  0  0  0  0  0  0  0  0  0  0
  -37.9570  151.0490    4.8850 C   0  0  0  0  0  0  0  0  0  0  0  0
  -36.8560  150.2090    5.0650 C   0  0  0  0  0  0  0  0  0  0  0  0
  -36.9850  148.8260    4.9270 C   0  0  0  0  0  0  0  0  0  0  0  0
  -38.2220  148.2430    4.6080 C   0  0  0  0  0  0  0  0  0  0  0  0
  -38.3050  146.7320    4.4850 C   0  0  0  0  0  0  0  0  0  0  0  0
  -37.6960  146.2380    3.2500 N   0  0  0  0  0  0  0  0  0  0  0  0
  -36.4260  145.5120    3.4610 C   0  0  0  0  0  0  0  0  0  0  0  0
  -35.1650  146.3370    3.1200 C   0  0  0  0  0  0  0  0  0  0  0  0
  -35.1280  146.7840    1.7140 N   0  0  0  0  0  0  0  0  0  0  0  0
  -34.2670  147.9530    1.5620 C   0  0  0  0  0  0  0  0  0  0  0  0
  -36.4860  147.0210    1.1830 C   0  0  0  0  0  0  0  0  0  0  0  0
  -37.5370  147.3320    2.2700 C   0  0  0  0  0  0  0  0  0  0  0  0
  -39.3420  149.0820    4.4090 C   0  0  0  0  0  0  0  0  0  0  0  0
  -40.7200  148.5450    4.0660 C   0  0  0  0  0  0  0  0  0  0  0  0
  -41.6360  149.5390    3.8680 F   0  0  0  0  0  0  0  0  0  0  0  0
  -40.7570  147.8160    2.9130 F   0  0  0  0  0  0  0  0  0  0  0  0
  -41.2540  147.7610    5.0430 F   0  0  0  0  0  0  0  0  0  0  0  0
  -39.1900  150.4790    4.5660 C   0  0  0  0  0  0  0  0  0  0  0  0
  -37.5150  155.2270    4.8770 C   0  0  0  0  0  0  0  0  0  0  0  0
  -37.3860  156.6200    4.7880 C   0  0  0  0  0  0  0  0  0  0  0  0
  -37.9060  157.2740    3.6240 C   0  0  0  0  0  0  0  0  0  0  0  0
  -38.3470  157.8040    2.6410 C   0  0  0  0  0  0  0  0  0  0  0  0
  -38.8810  158.4300    1.4850 C   0  0  0  0  0  0  0  0  0  0  0  0
  -38.2890  158.6070    0.2540 C   0  0  0  0  0  0  0  0  0  0  0  0
  -39.1280  159.2570   -0.6170 N   0  0  0  0  0  0  0  0  0  0  0  0
  -40.2280  159.4770    0.0710 C   0  0  0  0  0  0  0  0  0  0  0  0
  -41.4410  160.1030   -0.2960 C   0  0  0  0  0  0  0  0  0  0  0  0
  -42.4260  160.2040    0.6040 C   0  0  0  0  0  0  0  0  0  0  0  0
  -42.1720  159.6420    1.9530 C   0  0  0  0  0  0  0  0  0  0  0  0
  -41.0850  159.0590    2.3520 N   0  0  0  0  0  0  0  0  0  0  0  0
  -40.1300  158.9930    1.3700 N   0  0  0  0  0  0  0  0  0  0  0  0
  -36.5520  159.2485    6.7672 H   0  0  0  0  0  0  0  0  0  0  0  0
  -35.6665  159.0820    5.2132 H   0  0  0  0  0  0  0  0  0  0  0  0
  -37.4526  159.2731    5.2132 H   0  0  0  0  0  0  0  0  0  0  0  0
  -35.7441  157.1966    7.7317 H   0  0  0  0  0  0  0  0  0  0  0  0
  -35.9727  154.7228    7.8825 H   0  0  0  0  0  0  0  0  0  0  0  0
  -38.1350  153.0260    4.3330 H   0  0  0  0  0  0  0  0  0  0  0  0
  -35.8769  150.6417    5.3182 H   0  0  0  0  0  0  0  0  0  0  0  0
  -36.1041  148.1830    5.0703 H   0  0  0  0  0  0  0  0  0  0  0  0
  -37.7842  146.2789    5.3414 H   0  0  0  0  0  0  0  0  0  0  0  0
  -39.3695  146.4552    4.4677 H   0  0  0  0  0  0  0  0  0  0  0  0
  -36.3692  145.2150    4.5186 H   0  0  0  0  0  0  0  0  0  0  0  0
  -36.4358  144.6497    2.7782 H   0  0  0  0  0  0  0  0  0  0  0  0
  -35.1407  147.2240    3.7701 H   0  0  0  0  0  0  0  0  0  0  0  0
  -34.2935  145.6851    3.2798 H   0  0  0  0  0  0  0  0  0  0  0  0
  -33.9867  148.3336    2.5553 H   0  0  0  0  0  0  0  0  0  0  0  0
  -33.3596  147.6705    1.0081 H   0  0  0  0  0  0  0  0  0  0  0  0
  -34.8059  148.7358    1.0081 H   0  0  0  0  0  0  0  0  0  0  0  0
  -36.4427  147.8734    0.4891 H   0  0  0  0  0  0  0  0  0  0  0  0
  -36.8028  146.0904    0.6894 H   0  0  0  0  0  0  0  0  0  0  0  0
  -37.2276  148.2410    2.8067 H   0  0  0  0  0  0  0  0  0  0  0  0
  -38.5047  147.4630    1.7637 H   0  0  0  0  0  0  0  0  0  0  0  0
  -40.0650  151.1323    4.4334 H   0  0  0  0  0  0  0  0  0  0  0  0
  -38.0013  154.6680    4.0639 H   0  0  0  0  0  0  0  0  0  0  0  0
  -37.2729  158.2703    0.0008 H   0  0  0  0  0  0  0  0  0  0  0  0
  -41.5740  160.5033   -1.3119 H   0  0  0  0  0  0  0  0  0  0  0  0
  -43.3838  160.6836    0.3540 H   0  0  0  0  0  0  0  0  0  0  0  0
  -42.9864  159.7284    2.6874 H   0  0  0  0  0  0  0  0  0  0  0  0
  1  2  1  0
  2  3  1  0
  3  4  2  0
  4  5  1  0
  5  6  1  0
  6  7  2  0
  6  8  1  0
  8  9  1  0
  9 10  1  0
 10 11  2  0
 11 12  1  0
 12 13  1  0
 13 14  1  0
 14 15  1  0
 15 16  1  0
 16 17  1  0
 17 18  1  0
 17 19  1  0
 19 20  1  0
 12 21  2  0
 21 22  1  0
 22 23  1  0
 22 24  1  0
 22 25  1  0
 21 26  1  0
  5 27  2  0
 27 28  1  0
 28 29  1  0
 29 30  3  0
 30 31  1  0
 31 32  2  0
 32 33  1  0
 33 34  2  0
 34 35  1  0
 35 36  2  0
 36 37  1  0
 37 38  2  0
 38 39  1  0
 28  2  2  0
 39 31  1  0
 26  9  2  0
 39 34  1  0
 20 14  1  0
  1 40  1  0
  1 41  1  0
  1 42  1  0
  3 43  1  0
  4 44  1  0
  8 45  1  0
 10 46  1  0
 11 47  1  0
 13 48  1  0
 13 49  1  0
 15 50  1  0
 15 51  1  0
 16 52  1  0
 16 53  1  0
 18 54  1  0
 18 55  1  0
 18 56  1  0
 19 57  1  0
 19 58  1  0
 20 59  1  0
 20 60  1  0
 26 61  1  0
 27 62  1  0
 32 63  1  0
 35 64  1  0
 36 65  1  0
 37 66  1  0
M  END
>  <meeko>  (7) 
{"is_sidechain": false}

>  <vina_affinity_kcal_mol>  (7) 
-10.229

>  <pose_rank>  (7) 
7

$$$$

     RDKit          3D

 66 70  0  0  0  0  0  0  0  0999 V2000
  -36.6890  158.7270    5.9000 C   0  0  0  0  0  0  0  0  0  0  0  0
  -36.7440  157.2300    5.7620 C   0  0  0  0  0  0  0  0  0  0  0  0
  -36.2120  156.4230    6.7790 C   0  0  0  0  0  0  0  0  0  0  0  0
  -36.2470  155.0310    6.6750 C   0  0  0  0  0  0  0  0  0  0  0  0
  -36.8220  154.4230    5.5550 C   0  0  0  0  0  0  0  0  0  0  0  0
  -36.8440  152.9360    5.4840 C   0  0  0  0  0  0  0  0  0  0  0  0
  -35.7840  152.3330    5.6060 O   0  0  0  0  0  0  0  0  0  0  0  0
  -38.1010  152.3790    5.3260 N   0  0  0  0  0  0  0  0  0  0  0  0
  -38.4220  151.0120    5.1890 C   0  0  0  0  0  0  0  0  0  0  0  0
  -38.1400  150.1790    6.2730 C   0  0  0  0  0  0  0  0  0  0  0  0
  -38.4380  148.8170    6.2220 C   0  0  0  0  0  0  0  0  0  0  0  0
  -39.0330  148.2490    5.0830 C   0  0  0  0  0  0  0  0  0  0  0  0
  -39.3480  146.7630    5.0890 C   0  0  0  0  0  0  0  0  0  0  0  0
  -40.0720  146.3510    6.2920 N   0  0  0  0  0  0  0  0  0  0  0  0
  -39.9690  144.9050    6.5830 C   0  0  0  0  0  0  0  0  0  0  0  0
  -41.2260  144.0940    6.1970 C   0  0  0  0  0  0  0  0  0  0  0  0
  -42.4440  144.5450    6.8980 N   0  0  0  0  0  0  0  0  0  0  0  0
  -43.6420  144.1620    6.1560 C   0  0  0  0  0  0  0  0  0  0  0  0
  -42.4030  145.9940    7.1790 C   0  0  0  0  0  0  0  0  0  0  0  0
  -41.4810  146.7900    6.2310 C   0  0  0  0  0  0  0  0  0  0  0  0
  -39.3110  149.0770    3.9720 C   0  0  0  0  0  0  0  0  0  0  0  0
  -39.9550  148.5560    2.7000 C   0  0  0  0  0  0  0  0  0  0  0  0
  -40.1420  149.5370    1.7670 F   0  0  0  0  0  0  0  0  0  0  0  0
  -39.2140  147.6110    2.0520 F   0  0  0  0  0  0  0  0  0  0  0  0
  -41.1900  148.0170    2.9000 F   0  0  0  0  0  0  0  0  0  0  0  0
  -39.0100  150.4560    4.0520 C   0  0  0  0  0  0  0  0  0  0  0  0
  -37.3350  155.2170    4.5230 C   0  0  0  0  0  0  0  0  0  0  0  0
  -37.3010  156.6150    4.6270 C   0  0  0  0  0  0  0  0  0  0  0  0
  -37.8440  157.3850    3.5460 C   0  0  0  0  0  0  0  0  0  0  0  0
  -38.3010  158.0140    2.6310 C   0  0  0  0  0  0  0  0  0  0  0  0
  -38.8550  158.7540    1.5550 C   0  0  0  0  0  0  0  0  0  0  0  0
  -38.2370  159.1810    0.4010 C   0  0  0  0  0  0  0  0  0  0  0  0
  -39.1080  159.8690   -0.4080 N   0  0  0  0  0  0  0  0  0  0  0  0
  -40.2520  159.8630    0.2420 C   0  0  0  0  0  0  0  0  0  0  0  0
  -41.5120  160.4110   -0.0940 C   0  0  0  0  0  0  0  0  0  0  0  0
  -42.5370  160.2670    0.7540 C   0  0  0  0  0  0  0  0  0  0  0  0
  -42.2750  159.5300    2.0140 C   0  0  0  0  0  0  0  0  0  0  0  0
  -41.1480  159.0080    2.3810 N   0  0  0  0  0  0  0  0  0  0  0  0
  -40.1530  159.1960    1.4560 N   0  0  0  0  0  0  0  0  0  0  0  0
  -36.6791  158.9968    6.9664 H   0  0  0  0  0  0  0  0  0  0  0  0
  -35.7763  159.1064    5.4173 H   0  0  0  0  0  0  0  0  0  0  0  0
  -37.5714  159.1724    5.4173 H   0  0  0  0  0  0  0  0  0  0  0  0
  -35.7629  156.8916    7.6671 H   0  0  0  0  0  0  0  0  0  0  0  0
  -35.8207  154.4106    7.4771 H   0  0  0  0  0  0  0  0  0  0  0  0
  -38.8900  153.0090    5.3810 H   0  0  0  0  0  0  0  0  0  0  0  0
  -37.6777  150.6011    7.1775 H   0  0  0  0  0  0  0  0  0  0  0  0
  -38.2036  148.1783    7.0864 H   0  0  0  0  0  0  0  0  0  0  0  0
  -39.9642  146.5290    4.2084 H   0  0  0  0  0  0  0  0  0  0  0  0
  -38.3929  146.2177    5.0692 H   0  0  0  0  0  0  0  0  0  0  0  0
  -39.1117  144.5003    6.0250 H   0  0  0  0  0  0  0  0  0  0  0  0
  -39.8503  144.8078    7.6722 H   0  0  0  0  0  0  0  0  0  0  0  0
  -41.3882  144.1942    5.1137 H   0  0  0  0  0  0  0  0  0  0  0  0
  -41.0457  143.0496    6.4917 H   0  0  0  0  0  0  0  0  0  0  0  0
  -44.4447  143.9054    6.8629 H   0  0  0  0  0  0  0  0  0  0  0  0
  -43.9653  145.0016    5.5231 H   0  0  0  0  0  0  0  0  0  0  0  0
  -43.4183  143.2906    5.5231 H   0  0  0  0  0  0  0  0  0  0  0  0
  -43.4235  146.3937    7.0857 H   0  0  0  0  0  0  0  0  0  0  0  0
  -41.9943  146.1106    8.1936 H   0  0  0  0  0  0  0  0  0  0  0  0
  -41.8436  146.6620    5.2004 H   0  0  0  0  0  0  0  0  0  0  0  0
  -41.5115  147.8424    6.5497 H   0  0  0  0  0  0  0  0  0  0  0  0
  -39.2451  151.1068    3.1969 H   0  0  0  0  0  0  0  0  0  0  0  0
  -37.7658  154.7435    3.6285 H   0  0  0  0  0  0  0  0  0  0  0  0
  -37.1804  158.9948    0.1580 H   0  0  0  0  0  0  0  0  0  0  0  0
  -41.6479  160.9502   -1.0431 H   0  0  0  0  0  0  0  0  0  0  0  0
  -43.5317  160.6778    0.5262 H   0  0  0  0  0  0  0  0  0  0  0  0
  -43.1224  159.4153    2.7059 H   0  0  0  0  0  0  0  0  0  0  0  0
  1  2  1  0
  2  3  1  0
  3  4  2  0
  4  5  1  0
  5  6  1  0
  6  7  2  0
  6  8  1  0
  8  9  1  0
  9 10  1  0
 10 11  2  0
 11 12  1  0
 12 13  1  0
 13 14  1  0
 14 15  1  0
 15 16  1  0
 16 17  1  0
 17 18  1  0
 17 19  1  0
 19 20  1  0
 12 21  2  0
 21 22  1  0
 22 23  1  0
 22 24  1  0
 22 25  1  0
 21 26  1  0
  5 27  2  0
 27 28  1  0
 28 29  1  0
 29 30  3  0
 30 31  1  0
 31 32  2  0
 32 33  1  0
 33 34  2  0
 34 35  1  0
 35 36  2  0
 36 37  1  0
 37 38  2  0
 38 39  1  0
 28  2  2  0
 39 31  1  0
 26  9  2  0
 39 34  1  0
 20 14  1  0
  1 40  1  0
  1 41  1  0
  1 42  1  0
  3 43  1  0
  4 44  1  0
  8 45  1  0
 10 46  1  0
 11 47  1  0
 13 48  1  0
 13 49  1  0
 15 50  1  0
 15 51  1  0
 16 52  1  0
 16 53  1  0
 18 54  1  0
 18 55  1  0
 18 56  1  0
 19 57  1  0
 19 58  1  0
 20 59  1  0
 20 60  1  0
 26 61  1  0
 27 62  1  0
 32 63  1  0
 35 64  1  0
 36 65  1  0
 37 66  1  0
M  END
>  <meeko>  (8) 
{"is_sidechain": false}

>  <vina_affinity_kcal_mol>  (8) 
-10.147

>  <pose_rank>  (8) 
8

$$$$

     RDKit          3D

 66 70  0  0  0  0  0  0  0  0999 V2000
  -36.4740  158.2580    5.8680 C   0  0  0  0  0  0  0  0  0  0  0  0
  -36.7510  156.7800    5.7900 C   0  0  0  0  0  0  0  0  0  0  0  0
  -36.2910  155.9380    6.8130 C   0  0  0  0  0  0  0  0  0  0  0  0
  -36.5300  154.5630    6.7630 C   0  0  0  0  0  0  0  0  0  0  0  0
  -37.2400  154.0100    5.6930 C   0  0  0  0  0  0  0  0  0  0  0  0
  -37.4780  152.5400    5.6790 C   0  0  0  0  0  0  0  0  0  0  0  0
  -36.9970  151.8660    6.5820 O   0  0  0  0  0  0  0  0  0  0  0  0
  -38.2760  152.0890    4.6430 N   0  0  0  0  0  0  0  0  0  0  0  0
  -38.6360  150.7550    4.3560 C   0  0  0  0  0  0  0  0  0  0  0  0
  -39.9940  150.4870    4.1730 C   0  0  0  0  0  0  0  0  0  0  0  0
  -40.4320  149.1960    3.8740 C   0  0  0  0  0  0  0  0  0  0  0  0
  -39.5200  148.1350    3.7450 C   0  0  0  0  0  0  0  0  0  0  0  0
  -40.0520  146.7540    3.4040 C   0  0  0  0  0  0  0  0  0  0  0  0
  -40.8000  146.7380    2.1470 N   0  0  0  0  0  0  0  0  0  0  0  0
  -41.5390  145.4800    1.9090 C   0  0  0  0  0  0  0  0  0  0  0  0
  -40.8590  144.5320    0.8960 C   0  0  0  0  0  0  0  0  0  0  0  0
  -40.6850  145.1380   -0.4390 N   0  0  0  0  0  0  0  0  0  0  0  0
  -39.6120  144.4780   -1.1740 C   0  0  0  0  0  0  0  0  0  0  0  0
  -40.4810  146.5990   -0.3490 C   0  0  0  0  0  0  0  0  0  0  0  0
  -39.9180  147.0700    1.0090 C   0  0  0  0  0  0  0  0  0  0  0  0
  -38.1430  148.3890    3.9410 C   0  0  0  0  0  0  0  0  0  0  0  0
  -37.0840  147.3090    3.8190 C   0  0  0  0  0  0  0  0  0  0  0  0
  -35.8270  147.7750    4.0850 F   0  0  0  0  0  0  0  0  0  0  0  0
  -37.2500  146.2700    4.6890 F   0  0  0  0  0  0  0  0  0  0  0  0
  -37.0040  146.7670    2.5720 F   0  0  0  0  0  0  0  0  0  0  0  0
  -37.7230  149.7070    4.2320 C   0  0  0  0  0  0  0  0  0  0  0  0
  -37.6830  154.8370    4.6550 C   0  0  0  0  0  0  0  0  0  0  0  0
  -37.4450  156.2180    4.7040 C   0  0  0  0  0  0  0  0  0  0  0  0
  -37.9230  157.0250    3.6200 C   0  0  0  0  0  0  0  0  0  0  0  0
  -38.3300  157.6840    2.7030 C   0  0  0  0  0  0  0  0  0  0  0  0
  -38.8240  158.4620    1.6240 C   0  0  0  0  0  0  0  0  0  0  0  0
  -38.1640  158.8620    0.4840 C   0  0  0  0  0  0  0  0  0  0  0  0
  -38.9820  159.6030   -0.3340 N   0  0  0  0  0  0  0  0  0  0  0  0
  -40.1360  159.6560    0.2980 C   0  0  0  0  0  0  0  0  0  0  0  0
  -41.3570  160.2740   -0.0550 C   0  0  0  0  0  0  0  0  0  0  0  0
  -42.4030  160.1810    0.7750 C   0  0  0  0  0  0  0  0  0  0  0  0
  -42.2040  159.4220    2.0330 C   0  0  0  0  0  0  0  0  0  0  0  0
  -41.1130  158.8360    2.4140 N   0  0  0  0  0  0  0  0  0  0  0  0
  -40.0940  158.9750    1.5070 N   0  0  0  0  0  0  0  0  0  0  0  0
  -36.4164  158.5651    6.9227 H   0  0  0  0  0  0  0  0  0  0  0  0
  -35.5188  158.4789    5.3691 H   0  0  0  0  0  0  0  0  0  0  0  0
  -37.2844  158.8098    5.3691 H   0  0  0  0  0  0  0  0  0  0  0  0
  -35.7370  156.3645    7.6623 H   0  0  0  0  0  0  0  0  0  0  0  0
  -36.1583  153.9126    7.5685 H   0  0  0  0  0  0  0  0  0  0  0  0
  -38.7090  152.7930    4.0590 H   0  0  0  0  0  0  0  0  0  0  0  0
  -40.7267  151.3023    4.2655 H   0  0  0  0  0  0  0  0  0  0  0  0
  -41.5069  149.0064    3.7373 H   0  0  0  0  0  0  0  0  0  0  0  0
  -39.2030  146.0598    3.3184 H   0  0  0  0  0  0  0  0  0  0  0  0
  -40.7405  146.4526    4.2072 H   0  0  0  0  0  0  0  0  0  0  0  0
  -41.6359  144.9494    2.8677 H   0  0  0  0  0  0  0  0  0  0  0  0
  -42.5119  145.7597    1.4786 H   0  0  0  0  0  0  0  0  0  0  0  0
  -39.8686  144.2550    1.2863 H   0  0  0  0  0  0  0  0  0  0  0  0
  -41.5143  143.6567    0.7756 H   0  0  0  0  0  0  0  0  0  0  0  0
  -38.8971  144.0382   -0.4630 H   0  0  0  0  0  0  0  0  0  0  0  0
  -40.0354  143.6840   -1.8067 H   0  0  0  0  0  0  0  0  0  0  0  0
  -39.0943  145.2140   -1.8067 H   0  0  0  0  0  0  0  0  0  0  0  0
  -39.7768  146.8996   -1.1388 H   0  0  0  0  0  0  0  0  0  0  0  0
  -41.4699  147.0669   -0.4640 H   0  0  0  0  0  0  0  0  0  0  0  0
  -38.9422  146.5883    1.1698 H   0  0  0  0  0  0  0  0  0  0  0  0
  -39.8335  148.1660    0.9675 H   0  0  0  0  0  0  0  0  0  0  0  0
  -36.6503  149.9115    4.3639 H   0  0  0  0  0  0  0  0  0  0  0  0
  -38.2193  154.4028    3.7984 H   0  0  0  0  0  0  0  0  0  0  0  0
  -37.1154  158.6193    0.2570 H   0  0  0  0  0  0  0  0  0  0  0  0
  -41.4468  160.8259   -1.0023 H   0  0  0  0  0  0  0  0  0  0  0  0
  -43.3694  160.6479    0.5340 H   0  0  0  0  0  0  0  0  0  0  0  0
  -43.0681  159.3492    2.7098 H   0  0  0  0  0  0  0  0  0  0  0  0
  1  2  1  0
  2  3  1  0
  3  4  2  0
  4  5  1  0
  5  6  1  0
  6  7  2  0
  6  8  1  0
  8  9  1  0
  9 10  1  0
 10 11  2  0
 11 12  1  0
 12 13  1  0
 13 14  1  0
 14 15  1  0
 15 16  1  0
 16 17  1  0
 17 18  1  0
 17 19  1  0
 19 20  1  0
 12 21  2  0
 21 22  1  0
 22 23  1  0
 22 24  1  0
 22 25  1  0
 21 26  1  0
  5 27  2  0
 27 28  1  0
 28 29  1  0
 29 30  3  0
 30 31  1  0
 31 32  2  0
 32 33  1  0
 33 34  2  0
 34 35  1  0
 35 36  2  0
 36 37  1  0
 37 38  2  0
 38 39  1  0
 28  2  2  0
 39 31  1  0
 26  9  2  0
 39 34  1  0
 20 14  1  0
  1 40  1  0
  1 41  1  0
  1 42  1  0
  3 43  1  0
  4 44  1  0
  8 45  1  0
 10 46  1  0
 11 47  1  0
 13 48  1  0
 13 49  1  0
 15 50  1  0
 15 51  1  0
 16 52  1  0
 16 53  1  0
 18 54  1  0
 18 55  1  0
 18 56  1  0
 19 57  1  0
 19 58  1  0
 20 59  1  0
 20 60  1  0
 26 61  1  0
 27 62  1  0
 32 63  1  0
 35 64  1  0
 36 65  1  0
 37 66  1  0
M  END
>  <meeko>  (9) 
{"is_sidechain": false}

>  <vina_affinity_kcal_mol>  (9) 
-10.073

>  <pose_rank>  (9) 
9

$$$$

     RDKit          3D

 66 70  0  0  0  0  0  0  0  0999 V2000
  -35.4730  158.4080    4.2400 C   0  0  0  0  0  0  0  0  0  0  0  0
  -35.8860  157.0230    4.6580 C   0  0  0  0  0  0  0  0  0  0  0  0
  -34.9880  156.2260    5.3840 C   0  0  0  0  0  0  0  0  0  0  0  0
  -35.3440  154.9350    5.7820 C   0  0  0  0  0  0  0  0  0  0  0  0
  -36.6070  154.4250    5.4660 C   0  0  0  0  0  0  0  0  0  0  0  0
  -36.9500  153.0460    5.9130 C   0  0  0  0  0  0  0  0  0  0  0  0
  -36.7810  152.7600    7.0930 O   0  0  0  0  0  0  0  0  0  0  0  0
  -37.4760  152.2290    4.9290 N   0  0  0  0  0  0  0  0  0  0  0  0
  -37.8520  150.8740    5.0490 C   0  0  0  0  0  0  0  0  0  0  0  0
  -36.8760  149.9790    5.4900 C   0  0  0  0  0  0  0  0  0  0  0  0
  -37.1710  148.6230    5.6470 C   0  0  0  0  0  0  0  0  0  0  0  0
  -38.4550  148.1260    5.3700 C   0  0  0  0  0  0  0  0  0  0  0  0
  -38.7210  146.6450    5.5720 C   0  0  0  0  0  0  0  0  0  0  0  0
  -38.5500  146.2310    6.9650 N   0  0  0  0  0  0  0  0  0  0  0  0
  -38.7380  144.7810    7.1830 C   0  0  0  0  0  0  0  0  0  0  0  0
  -40.1040  144.4100    7.8020 C   0  0  0  0  0  0  0  0  0  0  0  0
  -40.3330  145.0330    9.1200 N   0  0  0  0  0  0  0  0  0  0  0  0
  -41.7600  145.1170    9.4160 C   0  0  0  0  0  0  0  0  0  0  0  0
  -39.6660  146.3480    9.2210 C   0  0  0  0  0  0  0  0  0  0  0  0
  -39.4150  147.0280    7.8580 C   0  0  0  0  0  0  0  0  0  0  0  0
  -39.4490  149.0180    4.9090 C   0  0  0  0  0  0  0  0  0  0  0  0
  -40.8650  148.5750    4.5880 C   0  0  0  0  0  0  0  0  0  0  0  0
  -41.6080  149.5690    4.0150 F   0  0  0  0  0  0  0  0  0  0  0  0
  -40.9330  147.5460    3.6940 F   0  0  0  0  0  0  0  0  0  0  0  0
  -41.5740  148.1900    5.6840 F   0  0  0  0  0  0  0  0  0  0  0  0
  -39.1300  150.3880    4.7690 C   0  0  0  0  0  0  0  0  0  0  0  0
  -37.5020  155.2010    4.7230 C   0  0  0  0  0  0  0  0  0  0  0  0
  -37.1460  156.4980    4.3240 C   0  0  0  0  0  0  0  0  0  0  0  0
  -38.0990  157.2570    3.5690 C   0  0  0  0  0  0  0  0  0  0  0  0
  -38.9090  157.8770    2.9360 C   0  0  0  0  0  0  0  0  0  0  0  0
  -39.8560  158.6170    2.1810 C   0  0  0  0  0  0  0  0  0  0  0  0
  -41.2070  158.7590    2.4040 C   0  0  0  0  0  0  0  0  0  0  0  0
  -41.7900  159.5620    1.4540 N   0  0  0  0  0  0  0  0  0  0  0  0
  -40.8040  159.9120    0.6550 C   0  0  0  0  0  0  0  0  0  0  0  0
  -40.7920  160.7330   -0.4960 C   0  0  0  0  0  0  0  0  0  0  0  0
  -39.6390  160.9370   -1.1450 C   0  0  0  0  0  0  0  0  0  0  0  0
  -38.4300  160.2730   -0.6010 C   0  0  0  0  0  0  0  0  0  0  0  0
  -38.3750  159.5100    0.4450 N   0  0  0  0  0  0  0  0  0  0  0  0
  -39.5950  159.3570    1.0520 N   0  0  0  0  0  0  0  0  0  0  0  0
  -35.2900  159.0217    5.1344 H   0  0  0  0  0  0  0  0  0  0  0  0
  -34.5528  158.3508    3.6400 H   0  0  0  0  0  0  0  0  0  0  0  0
  -36.2742  158.8641    3.6400 H   0  0  0  0  0  0  0  0  0  0  0  0
  -33.9945  156.6213    5.6422 H   0  0  0  0  0  0  0  0  0  0  0  0
  -34.6287  154.3180    6.3456 H   0  0  0  0  0  0  0  0  0  0  0  0
  -37.6800  152.6610    4.0370 H   0  0  0  0  0  0  0  0  0  0  0  0
  -35.8638  150.3455    5.7163 H   0  0  0  0  0  0  0  0  0  0  0  0
  -36.3862  147.9341    5.9927 H   0  0  0  0  0  0  0  0  0  0  0  0
  -39.7539  146.4265    5.2631 H   0  0  0  0  0  0  0  0  0  0  0  0
  -37.9917  146.0881    4.9654 H   0  0  0  0  0  0  0  0  0  0  0  0
  -38.6481  144.2709    6.2126 H   0  0  0  0  0  0  0  0  0  0  0  0
  -37.9670  144.4648    7.9011 H   0  0  0  0  0  0  0  0  0  0  0  0
  -40.8993  144.7389    7.1169 H   0  0  0  0  0  0  0  0  0  0  0  0
  -40.1109  143.3200    7.9498 H   0  0  0  0  0  0  0  0  0  0  0  0
  -41.9085  145.1257   10.5059 H   0  0  0  0  0  0  0  0  0  0  0  0
  -42.1706  146.0409    8.9826 H   0  0  0  0  0  0  0  0  0  0  0  0
  -42.2762  144.2477    8.9826 H   0  0  0  0  0  0  0  0  0  0  0  0
  -40.2992  147.0119    9.8280 H   0  0  0  0  0  0  0  0  0  0  0  0
  -38.6803  146.1721    9.6766 H   0  0  0  0  0  0  0  0  0  0  0  0
  -40.3836  147.1834    7.3604 H   0  0  0  0  0  0  0  0  0  0  0  0
  -38.8969  147.9781    8.0553 H   0  0  0  0  0  0  0  0  0  0  0  0
  -39.9081  151.0882    4.4311 H   0  0  0  0  0  0  0  0  0  0  0  0
  -38.4869  154.7938    4.4509 H   0  0  0  0  0  0  0  0  0  0  0  0
  -41.7506  158.2892    3.2370 H   0  0  0  0  0  0  0  0  0  0  0  0
  -41.7212  161.1997   -0.8548 H   0  0  0  0  0  0  0  0  0  0  0  0
  -39.5906  161.5700   -2.0433 H   0  0  0  0  0  0  0  0  0  0  0  0
  -37.4860  160.4452   -1.1387 H   0  0  0  0  0  0  0  0  0  0  0  0
  1  2  1  0
  2  3  1  0
  3  4  2  0
  4  5  1  0
  5  6  1  0
  6  7  2  0
  6  8  1  0
  8  9  1  0
  9 10  1  0
 10 11  2  0
 11 12  1  0
 12 13  1  0
 13 14  1  0
 14 15  1  0
 15 16  1  0
 16 17  1  0
 17 18  1  0
 17 19  1  0
 19 20  1  0
 12 21  2  0
 21 22  1  0
 22 23  1  0
 22 24  1  0
 22 25  1  0
 21 26  1  0
  5 27  2  0
 27 28  1  0
 28 29  1  0
 29 30  3  0
 30 31  1  0
 31 32  2  0
 32 33  1  0
 33 34  2  0
 34 35  1  0
 35 36  2  0
 36 37  1  0
 37 38  2  0
 38 39  1  0
 28  2  2  0
 39 31  1  0
 26  9  2  0
 39 34  1  0
 20 14  1  0
  1 40  1  0
  1 41  1  0
  1 42  1  0
  3 43  1  0
  4 44  1  0
  8 45  1  0
 10 46  1  0
 11 47  1  0
 13 48  1  0
 13 49  1  0
 15 50  1  0
 15 51  1  0
 16 52  1  0
 16 53  1  0
 18 54  1  0
 18 55  1  0
 18 56  1  0
 19 57  1  0
 19 58  1  0
 20 59  1  0
 20 60  1  0
 26 61  1  0
 27 62  1  0
 32 63  1  0
 35 64  1  0
 36 65  1  0
 37 66  1  0
M  END
>  <meeko>  (10) 
{"is_sidechain": false}

>  <vina_affinity_kcal_mol>  (10) 
-10.032

>  <pose_rank>  (10) 
10

$$$$
