
     RDKit          3D

 54 57  0  0  0  0  0  0  0  0999 V2000
   -6.6896   -0.7144   -2.1850 C   0  0  0  0  0  0  0  0  0  0  0  0
   -5.7127   -0.3451   -1.1040 C   0  0  0  0  0  0  0  0  0  0  0  0
   -4.3485   -0.5800   -1.3140 C   0  0  0  0  0  0  0  0  0  0  0  0
   -3.4006   -0.2583   -0.3344 C   0  0  0  0  0  0  0  0  0  0  0  0
   -3.7761    0.3075    0.8847 C   0  0  0  0  0  0  0  0  0  0  0  0
   -2.8762    0.6380    1.9021 N   0  0  0  0  0  0  0  0  0  0  0  0
   -1.4975    0.5186    2.0587 C   0  0  0  0  0  0  0  0  0  0  0  0
   -1.0206    1.0453    3.1964 N   0  0  0  0  0  0  0  0  0  0  0  0
    0.3013    0.9473    3.4033 C   0  0  0  0  0  0  0  0  0  0  0  0
    1.1606    0.3542    2.5155 C   0  0  0  0  0  0  0  0  0  0  0  0
    0.6049   -0.1565    1.3565 C   0  0  0  0  0  0  0  0  0  0  0  0
    1.4532   -0.8028    0.4151 N   0  0  0  0  0  0  0  0  0  0  0  0
    0.7246   -1.3759   -0.7235 C   0  0  0  0  0  0  0  0  0  0  0  0
    2.7429   -0.3264    0.0179 C   0  0  0  0  0  0  0  0  0  0  0  0
    2.9728    1.0877   -0.1443 C   0  0  0  0  0  0  0  0  0  0  0  0
    4.2036    1.6622   -0.5302 C   0  0  0  0  0  0  0  0  0  0  0  0
    5.1713    0.6859   -0.7389 C   0  0  0  0  0  0  0  0  0  0  0  0
    6.4725    0.9048   -1.1217 C   0  0  0  0  0  0  0  0  0  0  0  0
    7.2446    2.1359   -1.4182 C   0  0  0  0  0  0  0  0  0  0  0  0
    7.0119   -0.3580   -1.2016 N   0  0  0  0  0  0  0  0  0  0  0  0
    8.3676   -0.6983   -1.5710 C   0  0  0  0  0  0  0  0  0  0  0  0
    6.1576   -1.3526   -0.8858 N   0  0  0  0  0  0  0  0  0  0  0  0
    5.0001   -0.7379   -0.5984 C   0  0  0  0  0  0  0  0  0  0  0  0
    3.7650   -1.2835   -0.2131 C   0  0  0  0  0  0  0  0  0  0  0  0
   -0.7247   -0.0821    1.1426 N   0  0  0  0  0  0  0  0  0  0  0  0
   -5.1444    0.5272    1.1028 C   0  0  0  0  0  0  0  0  0  0  0  0
   -6.1037    0.2035    0.1284 C   0  0  0  0  0  0  0  0  0  0  0  0
   -7.8205    0.4822    0.4774 S   0  0  0  0  0  0  0  0  0  0  0  0
   -7.8958    0.7357    2.1401 N   0  0  0  0  0  0  0  0  0  0  0  0
   -8.2092    1.7373   -0.1206 O   0  0  0  0  0  0  0  0  0  0  0  0
   -8.5503   -0.7465    0.2673 O   0  0  0  0  0  0  0  0  0  0  0  0
   -6.1771   -0.8986   -3.1357 H   0  0  0  0  0  0  0  0  0  0  0  0
   -7.4014    0.0967   -2.3657 H   0  0  0  0  0  0  0  0  0  0  0  0
   -7.2283   -1.6274   -1.9147 H   0  0  0  0  0  0  0  0  0  0  0  0
   -4.0019   -1.0172   -2.2488 H   0  0  0  0  0  0  0  0  0  0  0  0
   -2.3572   -0.4582   -0.5565 H   0  0  0  0  0  0  0  0  0  0  0  0
   -3.2462    1.1153    2.7113 H   0  0  0  0  0  0  0  0  0  0  0  0
    0.6618    1.3691    4.3364 H   0  0  0  0  0  0  0  0  0  0  0  0
    2.2188    0.2787    2.7269 H   0  0  0  0  0  0  0  0  0  0  0  0
   -0.0913   -2.0260   -0.3842 H   0  0  0  0  0  0  0  0  0  0  0  0
    1.3686   -2.0104   -1.3446 H   0  0  0  0  0  0  0  0  0  0  0  0
    0.3088   -0.5901   -1.3663 H   0  0  0  0  0  0  0  0  0  0  0  0
    2.1378    1.7701    0.0219 H   0  0  0  0  0  0  0  0  0  0  0  0
    4.3418    2.7273   -0.6479 H   0  0  0  0  0  0  0  0  0  0  0  0
    6.6871    3.0379   -1.1496 H   0  0  0  0  0  0  0  0  0  0  0  0
    7.4786    2.1919   -2.4861 H   0  0  0  0  0  0  0  0  0  0  0  0
    8.1839    2.1515   -0.8558 H   0  0  0  0  0  0  0  0  0  0  0  0
    8.6183   -0.1799   -2.4996 H   0  0  0  0  0  0  0  0  0  0  0  0
    8.4447   -1.7782   -1.7228 H   0  0  0  0  0  0  0  0  0  0  0  0
    9.0302   -0.3855   -0.7605 H   0  0  0  0  0  0  0  0  0  0  0  0
    3.6186   -2.3472   -0.0910 H   0  0  0  0  0  0  0  0  0  0  0  0
   -5.4605    0.9579    2.0493 H   0  0  0  0  0  0  0  0  0  0  0  0
   -8.4491   -0.0117    2.5628 H   0  0  0  0  0  0  0  0  0  0  0  0
   -8.2702    1.6690    2.3170 H   0  0  0  0  0  0  0  0  0  0  0  0
  1  2  1  0
  2  3  1  0
  3  4  2  0
  4  5  1  0
  5  6  1  0
  6  7  1  0
  7  8  2  0
  8  9  1  0
  9 10  2  0
 10 11  1  0
 11 12  1  0
 12 13  1  0
 12 14  1  0
 14 15  1  0
 15 16  2  0
 16 17  1  0
 17 18  2  0
 18 19  1  0
 18 20  1  0
 20 21  1  0
 20 22  1  0
 22 23  2  0
 23 24  1  0
 11 25  2  0
  5 26  2  0
 26 27  1  0
 27 28  1  0
 28 29  1  0
 28 30  2  0
 28 31  2  0
 27  2  2  0
 25  7  1  0
 24 14  2  0
 23 17  1  0
  1 32  1  0
  1 33  1  0
  1 34  1  0
  3 35  1  0
  4 36  1  0
  6 37  1  0
  9 38  1  0
 10 39  1  0
 13 40  1  0
 13 41  1  0
 13 42  1  0
 15 43  1  0
 16 44  1  0
 19 45  1  0
 19 46  1  0
 19 47  1  0
 21 48  1  0
 21 49  1  0
 21 50  1  0
 24 51  1  0
 26 52  1  0
 29 53  1  0
 29 54  1  0
M  END
$$$$
