
     RDKit          3D

 54 57  0  0  0  0  0  0  0  0999 V2000
   -4.4080   -2.7860  -14.0570 C   0  0  0  0  0  0  0  0  0  0  0  0
   -5.2560   -1.8670  -14.8920 C   0  0  0  0  0  0  0  0  0  0  0  0
   -4.9240   -1.6750  -16.2390 C   0  0  0  0  0  0  0  0  0  0  0  0
   -5.6800   -0.8240  -17.0550 C   0  0  0  0  0  0  0  0  0  0  0  0
   -6.7890   -0.1370  -16.5620 C   0  0  0  0  0  0  0  0  0  0  0  0
   -7.5730    0.7320  -17.3270 N   0  0  0  0  0  0  0  0  0  0  0  0
   -7.8280    2.1000  -17.2900 C   0  0  0  0  0  0  0  0  0  0  0  0
   -7.0130    2.8370  -18.0570 N   0  0  0  0  0  0  0  0  0  0  0  0
   -7.2230    4.1620  -18.0680 C   0  0  0  0  0  0  0  0  0  0  0  0
   -8.2070    4.7750  -17.3360 C   0  0  0  0  0  0  0  0  0  0  0  0
   -9.0030    3.9570  -16.5560 C   0  0  0  0  0  0  0  0  0  0  0  0
  -10.0530    4.5440  -15.7960 N   0  0  0  0  0  0  0  0  0  0  0  0
  -10.9090    5.4400  -16.5830 C   0  0  0  0  0  0  0  0  0  0  0  0
  -10.8060    3.8640  -14.7850 C   0  0  0  0  0  0  0  0  0  0  0  0
  -12.1640    4.2580  -14.5070 C   0  0  0  0  0  0  0  0  0  0  0  0
  -12.9920    3.6550  -13.5350 C   0  0  0  0  0  0  0  0  0  0  0  0
  -12.3270    2.6300  -12.8730 C   0  0  0  0  0  0  0  0  0  0  0  0
  -12.8440    1.8430  -11.8720 C   0  0  0  0  0  0  0  0  0  0  0  0
  -14.1670    1.8000  -11.2040 C   0  0  0  0  0  0  0  0  0  0  0  0
  -11.8090    0.9990  -11.5450 N   0  0  0  0  0  0  0  0  0  0  0  0
  -11.8230   -0.0370  -10.5370 C   0  0  0  0  0  0  0  0  0  0  0  0
  -10.6860    1.1820  -12.2700 N   0  0  0  0  0  0  0  0  0  0  0  0
  -10.9720    2.1950  -13.1030 C   0  0  0  0  0  0  0  0  0  0  0  0
  -10.1700    2.8120  -14.0760 C   0  0  0  0  0  0  0  0  0  0  0  0
   -8.8160    2.6210  -16.5490 N   0  0  0  0  0  0  0  0  0  0  0  0
   -7.1130   -0.3160  -15.2090 C   0  0  0  0  0  0  0  0  0  0  0  0
   -6.3570   -1.1640  -14.3790 C   0  0  0  0  0  0  0  0  0  0  0  0
   -6.8030   -1.3250  -12.6700 S   0  0  0  0  0  0  0  0  0  0  0  0
   -8.1000   -0.2730  -12.4530 N   0  0  0  0  0  0  0  0  0  0  0  0
   -7.3430   -2.6480  -12.4630 O   0  0  0  0  0  0  0  0  0  0  0  0
   -5.7500   -0.7720  -11.8540 O   0  0  0  0  0  0  0  0  0  0  0  0
   -4.5918   -2.5868  -12.9909 H   0  0  0  0  0  0  0  0  0  0  0  0
   -4.6660   -3.8308  -14.2846 H   0  0  0  0  0  0  0  0  0  0  0  0
   -3.3459   -2.6127  -14.2846 H   0  0  0  0  0  0  0  0  0  0  0  0
   -4.0558   -2.2009  -16.6628 H   0  0  0  0  0  0  0  0  0  0  0  0
   -5.3925   -0.6945  -18.1088 H   0  0  0  0  0  0  0  0  0  0  0  0
   -8.0490    0.3430  -18.1280 H   0  0  0  0  0  0  0  0  0  0  0  0
   -6.5727    4.7884  -18.6962 H   0  0  0  0  0  0  0  0  0  0  0  0
   -8.3558    5.8644  -17.3678 H   0  0  0  0  0  0  0  0  0  0  0  0
  -11.5069    6.0658  -15.9041 H   0  0  0  0  0  0  0  0  0  0  0  0
  -10.2814    6.0832  -17.2173 H   0  0  0  0  0  0  0  0  0  0  0  0
  -11.5802    4.8424  -17.2173 H   0  0  0  0  0  0  0  0  0  0  0  0
  -12.5856    5.0875  -15.0937 H   0  0  0  0  0  0  0  0  0  0  0  0
  -14.0292    3.9575  -13.3285 H   0  0  0  0  0  0  0  0  0  0  0  0
  -14.0272    1.8045  -10.1129 H   0  0  0  0  0  0  0  0  0  0  0  0
  -14.7568    2.6794  -11.5017 H   0  0  0  0  0  0  0  0  0  0  0  0
  -14.6985    0.8841  -11.5017 H   0  0  0  0  0  0  0  0  0  0  0  0
  -11.8168    0.4233   -9.5380 H   0  0  0  0  0  0  0  0  0  0  0  0
  -12.7295   -0.6492  -10.6530 H   0  0  0  0  0  0  0  0  0  0  0  0
  -10.9334   -0.6735  -10.6530 H   0  0  0  0  0  0  0  0  0  0  0  0
   -9.1323    2.5048  -14.2730 H   0  0  0  0  0  0  0  0  0  0  0  0
   -7.9772    0.2184  -14.7876 H   0  0  0  0  0  0  0  0  0  0  0  0
   -8.5670   -0.5020  -11.5730 H   0  0  0  0  0  0  0  0  0  0  0  0
   -8.7140   -0.3300  -13.2660 H   0  0  0  0  0  0  0  0  0  0  0  0
  1  2  1  0
  2  3  1  0
  3  4  2  0
  4  5  1  0
  5  6  1  0
  6  7  1  0
  7  8  2  0
  8  9  1  0
  9 10  2  0
 10 11  1  0
 11 12  1  0
 12 13  1  0
 12 14  1  0
 14 15  1  0
 15 16  2  0
 16 17  1  0
 17 18  2  0
 18 19  1  0
 18 20  1  0
 20 21  1  0
 20 22  1  0
 22 23  2  0
 23 24  1  0
 11 25  2  0
  5 26  2  0
 26 27  1  0
 27 28  1  0
 28 29  1  0
 28 30  2  0
 28 31  2  0
 27  2  2  0
 25  7  1  0
 24 14  2  0
 23 17  1  0
  1 32  1  0
  1 33  1  0
  1 34  1  0
  3 35  1  0
  4 36  1  0
  6 37  1  0
  9 38  1  0
 10 39  1  0
 13 40  1  0
 13 41  1  0
 13 42  1  0
 15 43  1  0
 16 44  1  0
 19 45  1  0
 19 46  1  0
 19 47  1  0
 21 48  1  0
 21 49  1  0
 21 50  1  0
 24 51  1  0
 26 52  1  0
 29 53  1  0
 29 54  1  0
M  END
>  <meeko>  (1) 
{"is_sidechain": false}

>  <vina_affinity_kcal_mol>  (1) 
-9.169

>  <pose_rank>  (1) 
1

$$$$

     RDKit          3D

 54 57  0  0  0  0  0  0  0  0999 V2000
  -15.0630    0.6100   -9.3390 C   0  0  0  0  0  0  0  0  0  0  0  0
  -13.8100    0.7340  -10.1590 C   0  0  0  0  0  0  0  0  0  0  0  0
  -13.7560    1.6990  -11.1740 C   0  0  0  0  0  0  0  0  0  0  0  0
  -12.6120    1.8480  -11.9690 C   0  0  0  0  0  0  0  0  0  0  0  0
  -11.4860    1.0470  -11.7830 C   0  0  0  0  0  0  0  0  0  0  0  0
  -10.3230    1.1440  -12.5520 N   0  0  0  0  0  0  0  0  0  0  0  0
   -9.9230    1.9500  -13.6140 C   0  0  0  0  0  0  0  0  0  0  0  0
   -8.6690    1.7340  -14.0340 N   0  0  0  0  0  0  0  0  0  0  0  0
   -8.2370    2.4760  -15.0650 C   0  0  0  0  0  0  0  0  0  0  0  0
   -9.0050    3.4300  -15.6810 C   0  0  0  0  0  0  0  0  0  0  0  0
  -10.2850    3.6110  -15.1900 C   0  0  0  0  0  0  0  0  0  0  0  0
  -11.1290    4.5720  -15.8120 N   0  0  0  0  0  0  0  0  0  0  0  0
  -12.1510    5.1170  -14.9090 C   0  0  0  0  0  0  0  0  0  0  0  0
  -10.6890    5.5580  -16.7510 C   0  0  0  0  0  0  0  0  0  0  0  0
  -10.1580    6.8150  -16.2850 C   0  0  0  0  0  0  0  0  0  0  0  0
   -9.6970    7.8530  -17.1240 C   0  0  0  0  0  0  0  0  0  0  0  0
   -9.8220    7.5090  -18.4650 C   0  0  0  0  0  0  0  0  0  0  0  0
   -9.4670    8.2910  -19.5380 C   0  0  0  0  0  0  0  0  0  0  0  0
   -8.8760    9.6470  -19.6470 C   0  0  0  0  0  0  0  0  0  0  0  0
   -9.7920    7.5220  -20.6310 N   0  0  0  0  0  0  0  0  0  0  0  0
   -9.6220    7.8800  -22.0210 C   0  0  0  0  0  0  0  0  0  0  0  0
  -10.3090    6.3130  -20.3320 N   0  0  0  0  0  0  0  0  0  0  0  0
  -10.3470    6.2740  -18.9900 C   0  0  0  0  0  0  0  0  0  0  0  0
  -10.8000    5.2590  -18.1330 C   0  0  0  0  0  0  0  0  0  0  0  0
  -10.7400    2.8590  -14.1660 N   0  0  0  0  0  0  0  0  0  0  0  0
  -11.5450    0.0700  -10.7780 C   0  0  0  0  0  0  0  0  0  0  0  0
  -12.6900   -0.0920   -9.9780 C   0  0  0  0  0  0  0  0  0  0  0  0
  -12.7090   -1.3650   -8.7420 S   0  0  0  0  0  0  0  0  0  0  0  0
  -11.2000   -2.1030   -8.8460 N   0  0  0  0  0  0  0  0  0  0  0  0
  -12.7400   -0.7370   -7.4420 O   0  0  0  0  0  0  0  0  0  0  0  0
  -13.6410   -2.3930   -9.1390 O   0  0  0  0  0  0  0  0  0  0  0  0
  -14.8055    0.6355   -8.2699 H   0  0  0  0  0  0  0  0  0  0  0  0
  -15.7388    1.4457   -9.5734 H   0  0  0  0  0  0  0  0  0  0  0  0
  -15.5619   -0.3419   -9.5734 H   0  0  0  0  0  0  0  0  0  0  0  0
  -14.6255    2.3496  -11.3492 H   0  0  0  0  0  0  0  0  0  0  0  0
  -12.6019    2.6144  -12.7580 H   0  0  0  0  0  0  0  0  0  0  0  0
   -9.5460    0.5520  -12.2950 H   0  0  0  0  0  0  0  0  0  0  0  0
   -7.2144    2.3104  -15.4349 H   0  0  0  0  0  0  0  0  0  0  0  0
   -8.6217    4.0226  -16.5247 H   0  0  0  0  0  0  0  0  0  0  0  0
  -11.8435    4.9530  -13.8657 H   0  0  0  0  0  0  0  0  0  0  0  0
  -12.2649    6.1956  -15.0925 H   0  0  0  0  0  0  0  0  0  0  0  0
  -13.1101    4.6106  -15.0925 H   0  0  0  0  0  0  0  0  0  0  0  0
  -10.1085    6.9769  -15.1981 H   0  0  0  0  0  0  0  0  0  0  0  0
   -9.2915    8.8098  -16.7632 H   0  0  0  0  0  0  0  0  0  0  0  0
   -8.6994   10.0521  -18.6397 H   0  0  0  0  0  0  0  0  0  0  0  0
   -7.9218    9.5884  -20.1911 H   0  0  0  0  0  0  0  0  0  0  0  0
   -9.5685   10.3061  -20.1911 H   0  0  0  0  0  0  0  0  0  0  0  0
   -9.1511    8.8717  -22.0892 H   0  0  0  0  0  0  0  0  0  0  0  0
   -8.9815    7.1351  -22.5158 H   0  0  0  0  0  0  0  0  0  0  0  0
  -10.6041    7.9056  -22.5158 H   0  0  0  0  0  0  0  0  0  0  0  0
  -11.2086    4.3073  -18.5037 H   0  0  0  0  0  0  0  0  0  0  0  0
  -10.6762   -0.5839  -10.6121 H   0  0  0  0  0  0  0  0  0  0  0  0
  -10.5420   -1.4500   -9.2780 H   0  0  0  0  0  0  0  0  0  0  0  0
  -11.2940   -2.9820   -9.3570 H   0  0  0  0  0  0  0  0  0  0  0  0
  1  2  1  0
  2  3  1  0
  3  4  2  0
  4  5  1  0
  5  6  1  0
  6  7  1  0
  7  8  2  0
  8  9  1  0
  9 10  2  0
 10 11  1  0
 11 12  1  0
 12 13  1  0
 12 14  1  0
 14 15  1  0
 15 16  2  0
 16 17  1  0
 17 18  2  0
 18 19  1  0
 18 20  1  0
 20 21  1  0
 20 22  1  0
 22 23  2  0
 23 24  1  0
 11 25  2  0
  5 26  2  0
 26 27  1  0
 27 28  1  0
 28 29  1  0
 28 30  2  0
 28 31  2  0
 27  2  2  0
 25  7  1  0
 24 14  2  0
 23 17  1  0
  1 32  1  0
  1 33  1  0
  1 34  1  0
  3 35  1  0
  4 36  1  0
  6 37  1  0
  9 38  1  0
 10 39  1  0
 13 40  1  0
 13 41  1  0
 13 42  1  0
 15 43  1  0
 16 44  1  0
 19 45  1  0
 19 46  1  0
 19 47  1  0
 21 48  1  0
 21 49  1  0
 21 50  1  0
 24 51  1  0
 26 52  1  0
 29 53  1  0
 29 54  1  0
M  END
>  <meeko>  (2) 
{"is_sidechain": false}

>  <vina_affinity_kcal_mol>  (2) 
-9.042

>  <pose_rank>  (2) 
2

$$$$

     RDKit          3D

 54 57  0  0  0  0  0  0  0  0999 V2000
   -4.9930    0.0060  -13.4480 C   0  0  0  0  0  0  0  0  0  0  0  0
   -5.3900    0.9630  -14.5370 C   0  0  0  0  0  0  0  0  0  0  0  0
   -5.5650    2.3160  -14.2220 C   0  0  0  0  0  0  0  0  0  0  0  0
   -5.9390    3.2440  -15.2020 C   0  0  0  0  0  0  0  0  0  0  0  0
   -6.1530    2.8590  -16.5260 C   0  0  0  0  0  0  0  0  0  0  0  0
   -6.5380    3.7390  -17.5410 N   0  0  0  0  0  0  0  0  0  0  0  0
   -7.6410    4.5620  -17.7500 C   0  0  0  0  0  0  0  0  0  0  0  0
   -7.5830    5.2950  -18.8710 N   0  0  0  0  0  0  0  0  0  0  0  0
   -8.6270    6.0980  -19.1260 C   0  0  0  0  0  0  0  0  0  0  0  0
   -9.7180    6.2020  -18.3010 C   0  0  0  0  0  0  0  0  0  0  0  0
   -9.7080    5.4270  -17.1560 C   0  0  0  0  0  0  0  0  0  0  0  0
  -10.8280    5.4820  -16.2800 N   0  0  0  0  0  0  0  0  0  0  0  0
  -12.0600    5.9300  -16.9410 C   0  0  0  0  0  0  0  0  0  0  0  0
  -11.1090    4.5230  -15.2550 C   0  0  0  0  0  0  0  0  0  0  0  0
  -10.1020    3.5700  -14.8610 C   0  0  0  0  0  0  0  0  0  0  0  0
  -10.2750    2.5850  -13.8640 C   0  0  0  0  0  0  0  0  0  0  0  0
  -11.5480    2.6490  -13.3090 C   0  0  0  0  0  0  0  0  0  0  0  0
  -12.0400    1.8350  -12.3170 C   0  0  0  0  0  0  0  0  0  0  0  0
  -11.4540    0.7090  -11.5500 C   0  0  0  0  0  0  0  0  0  0  0  0
  -13.3270    2.2830  -12.1290 N   0  0  0  0  0  0  0  0  0  0  0  0
  -14.2960    1.7630  -11.1900 C   0  0  0  0  0  0  0  0  0  0  0  0
  -13.6790    3.3230  -12.9120 N   0  0  0  0  0  0  0  0  0  0  0  0
  -12.5950    3.5730  -13.6640 C   0  0  0  0  0  0  0  0  0  0  0  0
  -12.3970    4.5420  -14.6600 C   0  0  0  0  0  0  0  0  0  0  0  0
   -8.6730    4.6020  -16.8950 N   0  0  0  0  0  0  0  0  0  0  0  0
   -5.9950    1.5010  -16.8390 C   0  0  0  0  0  0  0  0  0  0  0  0
   -5.6240    0.5610  -15.8620 C   0  0  0  0  0  0  0  0  0  0  0  0
   -5.4670   -1.1460  -16.3190 S   0  0  0  0  0  0  0  0  0  0  0  0
   -5.6040   -1.1670  -17.9970 N   0  0  0  0  0  0  0  0  0  0  0  0
   -4.1160   -1.5700  -16.0390 O   0  0  0  0  0  0  0  0  0  0  0  0
   -6.6280   -1.8670  -15.8540 O   0  0  0  0  0  0  0  0  0  0  0  0
   -5.1841    0.4666  -12.4675 H   0  0  0  0  0  0  0  0  0  0  0  0
   -5.5818   -0.9186  -13.5398 H   0  0  0  0  0  0  0  0  0  0  0  0
   -3.9226   -0.2303  -13.5398 H   0  0  0  0  0  0  0  0  0  0  0  0
   -5.4061    2.6556  -13.1879 H   0  0  0  0  0  0  0  0  0  0  0  0
   -6.0669    4.3000  -14.9217 H   0  0  0  0  0  0  0  0  0  0  0  0
   -5.8880    3.8850  -18.2990 H   0  0  0  0  0  0  0  0  0  0  0  0
   -8.6071    6.7041  -20.0437 H   0  0  0  0  0  0  0  0  0  0  0  0
  -10.5596    6.8693  -18.5387 H   0  0  0  0  0  0  0  0  0  0  0  0
  -12.8065    6.2015  -16.1800 H   0  0  0  0  0  0  0  0  0  0  0  0
  -11.8413    6.8062  -17.5691 H   0  0  0  0  0  0  0  0  0  0  0  0
  -12.4552    5.1180  -17.5691 H   0  0  0  0  0  0  0  0  0  0  0  0
   -9.1296    3.6130  -15.3734 H   0  0  0  0  0  0  0  0  0  0  0  0
   -9.5026    1.8610  -13.5653 H   0  0  0  0  0  0  0  0  0  0  0  0
  -11.5567    0.9064  -10.4727 H   0  0  0  0  0  0  0  0  0  0  0  0
  -11.9820   -0.2219  -11.8042 H   0  0  0  0  0  0  0  0  0  0  0  0
  -10.3886    0.6074  -11.8042 H   0  0  0  0  0  0  0  0  0  0  0  0
  -13.9483    1.9496  -10.1632 H   0  0  0  0  0  0  0  0  0  0  0  0
  -15.2631    2.2633  -11.3463 H   0  0  0  0  0  0  0  0  0  0  0  0
  -14.4137    0.6805  -11.3463 H   0  0  0  0  0  0  0  0  0  0  0  0
  -13.1776    5.2585  -14.9555 H   0  0  0  0  0  0  0  0  0  0  0  0
   -6.1652    1.1640  -17.8722 H   0  0  0  0  0  0  0  0  0  0  0  0
   -4.7150   -0.8690  -18.4040 H   0  0  0  0  0  0  0  0  0  0  0  0
   -6.3940   -0.5830  -18.2730 H   0  0  0  0  0  0  0  0  0  0  0  0
  1  2  1  0
  2  3  1  0
  3  4  2  0
  4  5  1  0
  5  6  1  0
  6  7  1  0
  7  8  2  0
  8  9  1  0
  9 10  2  0
 10 11  1  0
 11 12  1  0
 12 13  1  0
 12 14  1  0
 14 15  1  0
 15 16  2  0
 16 17  1  0
 17 18  2  0
 18 19  1  0
 18 20  1  0
 20 21  1  0
 20 22  1  0
 22 23  2  0
 23 24  1  0
 11 25  2  0
  5 26  2  0
 26 27  1  0
 27 28  1  0
 28 29  1  0
 28 30  2  0
 28 31  2  0
 27  2  2  0
 25  7  1  0
 24 14  2  0
 23 17  1  0
  1 32  1  0
  1 33  1  0
  1 34  1  0
  3 35  1  0
  4 36  1  0
  6 37  1  0
  9 38  1  0
 10 39  1  0
 13 40  1  0
 13 41  1  0
 13 42  1  0
 15 43  1  0
 16 44  1  0
 19 45  1  0
 19 46  1  0
 19 47  1  0
 21 48  1  0
 21 49  1  0
 21 50  1  0
 24 51  1  0
 26 52  1  0
 29 53  1  0
 29 54  1  0
M  END
>  <meeko>  (3) 
{"is_sidechain": false}

>  <vina_affinity_kcal_mol>  (3) 
-9.037

>  <pose_rank>  (3) 
3

$$$$

     RDKit          3D

 54 57  0  0  0  0  0  0  0  0999 V2000
  -11.5010   -0.3820   -8.0620 C   0  0  0  0  0  0  0  0  0  0  0  0
  -12.0830    0.2220   -9.3090 C   0  0  0  0  0  0  0  0  0  0  0  0
  -11.2370    0.4810  -10.3950 C   0  0  0  0  0  0  0  0  0  0  0  0
  -11.7320    1.0480  -11.5760 C   0  0  0  0  0  0  0  0  0  0  0  0
  -13.0800    1.3770  -11.7190 C   0  0  0  0  0  0  0  0  0  0  0  0
  -13.6260    1.9540  -12.8690 N   0  0  0  0  0  0  0  0  0  0  0  0
  -13.3020    3.0590  -13.6500 C   0  0  0  0  0  0  0  0  0  0  0  0
  -14.2930    3.9510  -13.7880 N   0  0  0  0  0  0  0  0  0  0  0  0
  -14.0300    5.0430  -14.5230 C   0  0  0  0  0  0  0  0  0  0  0  0
  -12.8220    5.2690  -15.1310 C   0  0  0  0  0  0  0  0  0  0  0  0
  -11.8480    4.3030  -14.9590 C   0  0  0  0  0  0  0  0  0  0  0  0
  -10.5700    4.5030  -15.5500 N   0  0  0  0  0  0  0  0  0  0  0  0
   -9.8480    3.2510  -15.8100 C   0  0  0  0  0  0  0  0  0  0  0  0
  -10.2790    5.4860  -16.5490 C   0  0  0  0  0  0  0  0  0  0  0  0
   -9.8980    6.8210  -16.1620 C   0  0  0  0  0  0  0  0  0  0  0  0
   -9.5900    7.8620  -17.0640 C   0  0  0  0  0  0  0  0  0  0  0  0
   -9.7040    7.4360  -18.3820 C   0  0  0  0  0  0  0  0  0  0  0  0
   -9.4760    8.1990  -19.5030 C   0  0  0  0  0  0  0  0  0  0  0  0
   -9.0620    9.6100  -19.6970 C   0  0  0  0  0  0  0  0  0  0  0  0
   -9.7280    7.3390  -20.5460 N   0  0  0  0  0  0  0  0  0  0  0  0
   -9.6390    7.6420  -21.9570 C   0  0  0  0  0  0  0  0  0  0  0  0
  -10.0830    6.0930  -20.1730 N   0  0  0  0  0  0  0  0  0  0  0  0
  -10.0840    6.1200  -18.8300 C   0  0  0  0  0  0  0  0  0  0  0  0
  -10.3850    5.1020  -17.9120 C   0  0  0  0  0  0  0  0  0  0  0  0
  -12.0920    3.2090  -14.2070 N   0  0  0  0  0  0  0  0  0  0  0  0
  -13.9240    1.1340  -10.6250 C   0  0  0  0  0  0  0  0  0  0  0  0
  -13.4370    0.5690   -9.4330 C   0  0  0  0  0  0  0  0  0  0  0  0
  -14.5530    0.3120   -8.0780 S   0  0  0  0  0  0  0  0  0  0  0  0
  -16.0430    0.8760   -8.6220 N   0  0  0  0  0  0  0  0  0  0  0  0
  -14.7250   -1.1090   -7.8930 O   0  0  0  0  0  0  0  0  0  0  0  0
  -14.2010    1.2060   -7.0010 O   0  0  0  0  0  0  0  0  0  0  0  0
  -11.9561    0.0903   -7.1789 H   0  0  0  0  0  0  0  0  0  0  0  0
  -11.7072   -1.4624   -8.0472 H   0  0  0  0  0  0  0  0  0  0  0  0
  -10.4137   -0.2160   -8.0472 H   0  0  0  0  0  0  0  0  0  0  0  0
  -10.1675    0.2353  -10.3190 H   0  0  0  0  0  0  0  0  0  0  0  0
  -11.0414    1.2384  -12.4107 H   0  0  0  0  0  0  0  0  0  0  0  0
  -14.4050    1.4790  -13.3000 H   0  0  0  0  0  0  0  0  0  0  0  0
  -14.8239    5.7947  -14.6437 H   0  0  0  0  0  0  0  0  0  0  0  0
  -12.6368    6.1750  -15.7267 H   0  0  0  0  0  0  0  0  0  0  0  0
   -9.5760    2.7793  -14.8542 H   0  0  0  0  0  0  0  0  0  0  0  0
  -10.4916    2.5692  -16.3853 H   0  0  0  0  0  0  0  0  0  0  0  0
   -8.9355    3.4666  -16.3853 H   0  0  0  0  0  0  0  0  0  0  0  0
   -9.8433    7.0447  -15.0864 H   0  0  0  0  0  0  0  0  0  0  0  0
   -9.2976    8.8788  -16.7628 H   0  0  0  0  0  0  0  0  0  0  0  0
   -8.9215   10.0890  -18.7168 H   0  0  0  0  0  0  0  0  0  0  0  0
   -8.1169    9.6409  -20.2591 H   0  0  0  0  0  0  0  0  0  0  0  0
   -9.8406   10.1466  -20.2591 H   0  0  0  0  0  0  0  0  0  0  0  0
   -9.3312    8.6899  -22.0883 H   0  0  0  0  0  0  0  0  0  0  0  0
   -8.8973    6.9802  -22.4281 H   0  0  0  0  0  0  0  0  0  0  0  0
  -10.6208    7.4864  -22.4281 H   0  0  0  0  0  0  0  0  0  0  0  0
  -10.6792    4.0888  -18.2231 H   0  0  0  0  0  0  0  0  0  0  0  0
  -14.9908    1.3913  -10.7014 H   0  0  0  0  0  0  0  0  0  0  0  0
  -15.9080    1.7840   -9.0720 H   0  0  0  0  0  0  0  0  0  0  0  0
  -16.6950    0.9040   -7.8370 H   0  0  0  0  0  0  0  0  0  0  0  0
  1  2  1  0
  2  3  1  0
  3  4  2  0
  4  5  1  0
  5  6  1  0
  6  7  1  0
  7  8  2  0
  8  9  1  0
  9 10  2  0
 10 11  1  0
 11 12  1  0
 12 13  1  0
 12 14  1  0
 14 15  1  0
 15 16  2  0
 16 17  1  0
 17 18  2  0
 18 19  1  0
 18 20  1  0
 20 21  1  0
 20 22  1  0
 22 23  2  0
 23 24  1  0
 11 25  2  0
  5 26  2  0
 26 27  1  0
 27 28  1  0
 28 29  1  0
 28 30  2  0
 28 31  2  0
 27  2  2  0
 25  7  1  0
 24 14  2  0
 23 17  1  0
  1 32  1  0
  1 33  1  0
  1 34  1  0
  3 35  1  0
  4 36  1  0
  6 37  1  0
  9 38  1  0
 10 39  1  0
 13 40  1  0
 13 41  1  0
 13 42  1  0
 15 43  1  0
 16 44  1  0
 19 45  1  0
 19 46  1  0
 19 47  1  0
 21 48  1  0
 21 49  1  0
 21 50  1  0
 24 51  1  0
 26 52  1  0
 29 53  1  0
 29 54  1  0
M  END
>  <meeko>  (4) 
{"is_sidechain": false}

>  <vina_affinity_kcal_mol>  (4) 
-9.008

>  <pose_rank>  (4) 
4

$$$$

     RDKit          3D

 54 57  0  0  0  0  0  0  0  0999 V2000
   -2.9720   -2.5060  -16.5180 C   0  0  0  0  0  0  0  0  0  0  0  0
   -4.2160   -1.6640  -16.5780 C   0  0  0  0  0  0  0  0  0  0  0  0
   -5.3450   -2.0680  -15.8550 C   0  0  0  0  0  0  0  0  0  0  0  0
   -6.5280   -1.3200  -15.8850 C   0  0  0  0  0  0  0  0  0  0  0  0
   -6.6300   -0.1460  -16.6330 C   0  0  0  0  0  0  0  0  0  0  0  0
   -7.7880    0.6340  -16.7080 N   0  0  0  0  0  0  0  0  0  0  0  0
   -8.3810    1.5780  -15.8750 C   0  0  0  0  0  0  0  0  0  0  0  0
   -8.0050    1.5000  -14.5910 N   0  0  0  0  0  0  0  0  0  0  0  0
   -8.5390    2.3950  -13.7460 C   0  0  0  0  0  0  0  0  0  0  0  0
   -9.4370    3.3550  -14.1340 C   0  0  0  0  0  0  0  0  0  0  0  0
   -9.7910    3.3730  -15.4710 C   0  0  0  0  0  0  0  0  0  0  0  0
  -10.7020    4.3650  -15.9270 N   0  0  0  0  0  0  0  0  0  0  0  0
  -11.6160    4.8390  -14.8810 C   0  0  0  0  0  0  0  0  0  0  0  0
  -10.3720    5.4160  -16.8410 C   0  0  0  0  0  0  0  0  0  0  0  0
   -9.9350    6.6970  -16.3440 C   0  0  0  0  0  0  0  0  0  0  0  0
   -9.5860    7.7970  -17.1570 C   0  0  0  0  0  0  0  0  0  0  0  0
   -9.7190    7.4890  -18.5050 C   0  0  0  0  0  0  0  0  0  0  0  0
   -9.4610    8.3340  -19.5590 C   0  0  0  0  0  0  0  0  0  0  0  0
   -8.9890    9.7380  -19.6350 C   0  0  0  0  0  0  0  0  0  0  0  0
   -9.7510    7.5770  -20.6700 N   0  0  0  0  0  0  0  0  0  0  0  0
   -9.6510    7.9940  -22.0510 C   0  0  0  0  0  0  0  0  0  0  0  0
  -10.1570    6.3190  -20.4010 N   0  0  0  0  0  0  0  0  0  0  0  0
  -10.1540    6.2330  -19.0610 C   0  0  0  0  0  0  0  0  0  0  0  0
  -10.4960    5.1540  -18.2300 C   0  0  0  0  0  0  0  0  0  0  0  0
   -9.2490    2.4900  -16.3350 N   0  0  0  0  0  0  0  0  0  0  0  0
   -5.5060    0.2500  -17.3710 C   0  0  0  0  0  0  0  0  0  0  0  0
   -4.3140   -0.4960  -17.3520 C   0  0  0  0  0  0  0  0  0  0  0  0
   -2.9370    0.0460  -18.3290 S   0  0  0  0  0  0  0  0  0  0  0  0
   -3.6190    0.7360  -19.7060 N   0  0  0  0  0  0  0  0  0  0  0  0
   -2.2870    1.1330  -17.6370 O   0  0  0  0  0  0  0  0  0  0  0  0
   -2.2240   -1.1090  -18.8210 O   0  0  0  0  0  0  0  0  0  0  0  0
   -2.7029   -2.6882  -15.4671 H   0  0  0  0  0  0  0  0  0  0  0  0
   -3.1549   -3.4668  -17.0215 H   0  0  0  0  0  0  0  0  0  0  0  0
   -2.1480   -1.9792  -17.0215 H   0  0  0  0  0  0  0  0  0  0  0  0
   -5.3017   -2.9881  -15.2537 H   0  0  0  0  0  0  0  0  0  0  0  0
   -7.3970   -1.6654  -15.3058 H   0  0  0  0  0  0  0  0  0  0  0  0
   -8.3330    0.5740  -17.5560 H   0  0  0  0  0  0  0  0  0  0  0  0
   -8.2409    2.3563  -12.6879 H   0  0  0  0  0  0  0  0  0  0  0  0
   -9.8559    4.0762  -13.4168 H   0  0  0  0  0  0  0  0  0  0  0  0
  -11.1882    4.6171  -13.8922 H   0  0  0  0  0  0  0  0  0  0  0  0
  -11.7589    5.9249  -14.9834 H   0  0  0  0  0  0  0  0  0  0  0  0
  -12.5859    4.3302  -14.9834 H   0  0  0  0  0  0  0  0  0  0  0  0
   -9.8688    6.8264  -15.2536 H   0  0  0  0  0  0  0  0  0  0  0  0
   -9.2519    8.7720  -16.7727 H   0  0  0  0  0  0  0  0  0  0  0  0
   -8.8554   10.1355  -18.6181 H   0  0  0  0  0  0  0  0  0  0  0  0
   -8.0295    9.7737  -20.1717 H   0  0  0  0  0  0  0  0  0  0  0  0
   -9.7321   10.3461  -20.1717 H   0  0  0  0  0  0  0  0  0  0  0  0
   -9.3947    9.0629  -22.0936 H   0  0  0  0  0  0  0  0  0  0  0  0
   -8.8677    7.4087  -22.5549 H   0  0  0  0  0  0  0  0  0  0  0  0
  -10.6145    7.8276  -22.5549 H   0  0  0  0  0  0  0  0  0  0  0  0
  -10.8329    4.1838  -18.6241 H   0  0  0  0  0  0  0  0  0  0  0  0
   -5.5575    1.1653  -17.9790 H   0  0  0  0  0  0  0  0  0  0  0  0
   -3.8770    1.7020  -19.4970 H   0  0  0  0  0  0  0  0  0  0  0  0
   -4.4050    0.1610  -20.0110 H   0  0  0  0  0  0  0  0  0  0  0  0
  1  2  1  0
  2  3  1  0
  3  4  2  0
  4  5  1  0
  5  6  1  0
  6  7  1  0
  7  8  2  0
  8  9  1  0
  9 10  2  0
 10 11  1  0
 11 12  1  0
 12 13  1  0
 12 14  1  0
 14 15  1  0
 15 16  2  0
 16 17  1  0
 17 18  2  0
 18 19  1  0
 18 20  1  0
 20 21  1  0
 20 22  1  0
 22 23  2  0
 23 24  1  0
 11 25  2  0
  5 26  2  0
 26 27  1  0
 27 28  1  0
 28 29  1  0
 28 30  2  0
 28 31  2  0
 27  2  2  0
 25  7  1  0
 24 14  2  0
 23 17  1  0
  1 32  1  0
  1 33  1  0
  1 34  1  0
  3 35  1  0
  4 36  1  0
  6 37  1  0
  9 38  1  0
 10 39  1  0
 13 40  1  0
 13 41  1  0
 13 42  1  0
 15 43  1  0
 16 44  1  0
 19 45  1  0
 19 46  1  0
 19 47  1  0
 21 48  1  0
 21 49  1  0
 21 50  1  0
 24 51  1  0
 26 52  1  0
 29 53  1  0
 29 54  1  0
M  END
>  <meeko>  (5) 
{"is_sidechain": false}

>  <vina_affinity_kcal_mol>  (5) 
-8.969

>  <pose_rank>  (5) 
5

$$$$

     RDKit          3D

 54 57  0  0  0  0  0  0  0  0999 V2000
   -3.8300   -2.6660  -16.4390 C   0  0  0  0  0  0  0  0  0  0  0  0
   -4.5300   -1.3650  -16.1580 C   0  0  0  0  0  0  0  0  0  0  0  0
   -5.2500   -0.7470  -17.1880 C   0  0  0  0  0  0  0  0  0  0  0  0
   -5.9130    0.4680  -16.9760 C   0  0  0  0  0  0  0  0  0  0  0  0
   -5.8840    1.1090  -15.7370 C   0  0  0  0  0  0  0  0  0  0  0  0
   -6.5180    2.3260  -15.4730 N   0  0  0  0  0  0  0  0  0  0  0  0
   -7.7680    2.6850  -14.9770 C   0  0  0  0  0  0  0  0  0  0  0  0
   -8.0230    2.2390  -13.7390 N   0  0  0  0  0  0  0  0  0  0  0  0
   -9.2110    2.5670  -13.2080 C   0  0  0  0  0  0  0  0  0  0  0  0
  -10.1520    3.3120  -13.8700 C   0  0  0  0  0  0  0  0  0  0  0  0
   -9.8300    3.7300  -15.1470 C   0  0  0  0  0  0  0  0  0  0  0  0
  -10.7640    4.5260  -15.8660 N   0  0  0  0  0  0  0  0  0  0  0  0
  -11.9250    4.9280  -15.0610 C   0  0  0  0  0  0  0  0  0  0  0  0
  -10.4130    5.5420  -16.8110 C   0  0  0  0  0  0  0  0  0  0  0  0
   -9.9580    6.8310  -16.3520 C   0  0  0  0  0  0  0  0  0  0  0  0
   -9.5870    7.8990  -17.1980 C   0  0  0  0  0  0  0  0  0  0  0  0
   -9.7190    7.5510  -18.5370 C   0  0  0  0  0  0  0  0  0  0  0  0
   -9.4420    8.3580  -19.6150 C   0  0  0  0  0  0  0  0  0  0  0  0
   -8.9470    9.7510  -19.7320 C   0  0  0  0  0  0  0  0  0  0  0  0
   -9.7380    7.5710  -20.7030 N   0  0  0  0  0  0  0  0  0  0  0  0
   -9.6240    7.9420  -22.0960 C   0  0  0  0  0  0  0  0  0  0  0  0
  -10.1650    6.3290  -20.3970 N   0  0  0  0  0  0  0  0  0  0  0  0
  -10.1710    6.2840  -19.0550 C   0  0  0  0  0  0  0  0  0  0  0  0
  -10.5340    5.2390  -18.1920 C   0  0  0  0  0  0  0  0  0  0  0  0
   -8.6320    3.4240  -15.6880 N   0  0  0  0  0  0  0  0  0  0  0  0
   -5.1490    0.4990  -14.7110 C   0  0  0  0  0  0  0  0  0  0  0  0
   -4.4750   -0.7180  -14.9140 C   0  0  0  0  0  0  0  0  0  0  0  0
   -3.5400   -1.4240  -13.5810 S   0  0  0  0  0  0  0  0  0  0  0  0
   -3.5970   -0.2770  -12.3490 N   0  0  0  0  0  0  0  0  0  0  0  0
   -4.2610   -2.5670  -13.0750 O   0  0  0  0  0  0  0  0  0  0  0  0
   -2.1480   -1.4780  -13.9580 O   0  0  0  0  0  0  0  0  0  0  0  0
   -3.5675   -3.1539  -15.4887 H   0  0  0  0  0  0  0  0  0  0  0  0
   -4.4962   -3.3234  -17.0169 H   0  0  0  0  0  0  0  0  0  0  0  0
   -2.9143   -2.4723  -17.0169 H   0  0  0  0  0  0  0  0  0  0  0  0
   -5.2954   -1.2232  -18.1785 H   0  0  0  0  0  0  0  0  0  0  0  0
   -6.4698    0.9279  -17.8057 H   0  0  0  0  0  0  0  0  0  0  0  0
   -5.9790    3.1690  -15.6110 H   0  0  0  0  0  0  0  0  0  0  0  0
   -9.4413    2.2204  -12.1898 H   0  0  0  0  0  0  0  0  0  0  0  0
  -11.1172    3.5650  -13.4069 H   0  0  0  0  0  0  0  0  0  0  0  0
  -11.6777    4.8424  -13.9926 H   0  0  0  0  0  0  0  0  0  0  0  0
  -12.1895    5.9700  -15.2938 H   0  0  0  0  0  0  0  0  0  0  0  0
  -12.7772    4.2726  -15.2938 H   0  0  0  0  0  0  0  0  0  0  0  0
   -9.8955    6.9939  -15.2659 H   0  0  0  0  0  0  0  0  0  0  0  0
   -9.2384    8.8800  -16.8429 H   0  0  0  0  0  0  0  0  0  0  0  0
   -8.7972   10.1725  -18.7271 H   0  0  0  0  0  0  0  0  0  0  0  0
   -7.9920    9.7561  -20.2779 H   0  0  0  0  0  0  0  0  0  0  0  0
   -9.6846   10.3576  -20.2779 H   0  0  0  0  0  0  0  0  0  0  0  0
   -9.3017    8.9910  -22.1709 H   0  0  0  0  0  0  0  0  0  0  0  0
   -8.8833    7.2948  -22.5884 H   0  0  0  0  0  0  0  0  0  0  0  0
  -10.6003    7.8224  -22.5884 H   0  0  0  0  0  0  0  0  0  0  0  0
  -10.8846    4.2623  -18.5570 H   0  0  0  0  0  0  0  0  0  0  0  0
   -5.0984    0.9835  -13.7247 H   0  0  0  0  0  0  0  0  0  0  0  0
   -2.6490    0.0560  -12.1650 H   0  0  0  0  0  0  0  0  0  0  0  0
   -4.0500   -0.6890  -11.5320 H   0  0  0  0  0  0  0  0  0  0  0  0
  1  2  1  0
  2  3  1  0
  3  4  2  0
  4  5  1  0
  5  6  1  0
  6  7  1  0
  7  8  2  0
  8  9  1  0
  9 10  2  0
 10 11  1  0
 11 12  1  0
 12 13  1  0
 12 14  1  0
 14 15  1  0
 15 16  2  0
 16 17  1  0
 17 18  2  0
 18 19  1  0
 18 20  1  0
 20 21  1  0
 20 22  1  0
 22 23  2  0
 23 24  1  0
 11 25  2  0
  5 26  2  0
 26 27  1  0
 27 28  1  0
 28 29  1  0
 28 30  2  0
 28 31  2  0
 27  2  2  0
 25  7  1  0
 24 14  2  0
 23 17  1  0
  1 32  1  0
  1 33  1  0
  1 34  1  0
  3 35  1  0
  4 36  1  0
  6 37  1  0
  9 38  1  0
 10 39  1  0
 13 40  1  0
 13 41  1  0
 13 42  1  0
 15 43  1  0
 16 44  1  0
 19 45  1  0
 19 46  1  0
 19 47  1  0
 21 48  1  0
 21 49  1  0
 21 50  1  0
 24 51  1  0
 26 52  1  0
 29 53  1  0
 29 54  1  0
M  END
>  <meeko>  (6) 
{"is_sidechain": false}

>  <vina_affinity_kcal_mol>  (6) 
-8.949

>  <pose_rank>  (6) 
6

$$$$

     RDKit          3D

 54 57  0  0  0  0  0  0  0  0999 V2000
   -5.1960    0.1320  -13.4400 C   0  0  0  0  0  0  0  0  0  0  0  0
   -5.5130    1.1110  -14.5360 C   0  0  0  0  0  0  0  0  0  0  0  0
   -5.6380    2.4700  -14.2170 C   0  0  0  0  0  0  0  0  0  0  0  0
   -5.9390    3.4180  -15.2020 C   0  0  0  0  0  0  0  0  0  0  0  0
   -6.1250    3.0510  -16.5350 C   0  0  0  0  0  0  0  0  0  0  0  0
   -6.4370    3.9520  -17.5570 N   0  0  0  0  0  0  0  0  0  0  0  0
   -7.5510    4.7280  -17.8640 C   0  0  0  0  0  0  0  0  0  0  0  0
   -7.4780    5.3620  -19.0430 N   0  0  0  0  0  0  0  0  0  0  0  0
   -8.5320    6.1150  -19.3940 C   0  0  0  0  0  0  0  0  0  0  0  0
   -9.6450    6.2660  -18.6080 C   0  0  0  0  0  0  0  0  0  0  0  0
   -9.6500    5.5950  -17.3990 C   0  0  0  0  0  0  0  0  0  0  0  0
  -10.7930    5.7000  -16.5590 N   0  0  0  0  0  0  0  0  0  0  0  0
  -11.9740    6.2310  -17.2500 C   0  0  0  0  0  0  0  0  0  0  0  0
  -11.1630    4.7420  -15.5620 C   0  0  0  0  0  0  0  0  0  0  0  0
  -12.3590    4.9370  -14.7810 C   0  0  0  0  0  0  0  0  0  0  0  0
  -12.8140    4.0550  -13.7760 C   0  0  0  0  0  0  0  0  0  0  0  0
  -11.9560    2.9710  -13.6320 C   0  0  0  0  0  0  0  0  0  0  0  0
  -12.1060    1.9320  -12.7440 C   0  0  0  0  0  0  0  0  0  0  0  0
  -13.1350    1.6160  -11.7240 C   0  0  0  0  0  0  0  0  0  0  0  0
  -11.0110    1.1340  -12.9790 N   0  0  0  0  0  0  0  0  0  0  0  0
  -10.6800   -0.1020  -12.3050 C   0  0  0  0  0  0  0  0  0  0  0  0
  -10.1910    1.5800  -13.9530 N   0  0  0  0  0  0  0  0  0  0  0  0
  -10.7470    2.7260  -14.3770 C   0  0  0  0  0  0  0  0  0  0  0  0
  -10.3170    3.6190  -15.3710 C   0  0  0  0  0  0  0  0  0  0  0  0
   -8.6050    4.8190  -17.0410 N   0  0  0  0  0  0  0  0  0  0  0  0
   -6.0170    1.6890  -16.8530 C   0  0  0  0  0  0  0  0  0  0  0  0
   -5.7200    0.7270  -15.8700 C   0  0  0  0  0  0  0  0  0  0  0  0
   -5.6240   -0.9830  -16.3330 S   0  0  0  0  0  0  0  0  0  0  0  0
   -5.6570   -0.9850  -18.0170 N   0  0  0  0  0  0  0  0  0  0  0  0
   -4.3170   -1.4780  -15.9740 O   0  0  0  0  0  0  0  0  0  0  0  0
   -6.8470   -1.6450  -15.9480 O   0  0  0  0  0  0  0  0  0  0  0  0
   -5.3516    0.6125  -12.4628 H   0  0  0  0  0  0  0  0  0  0  0  0
   -5.8567   -0.7431  -13.5276 H   0  0  0  0  0  0  0  0  0  0  0  0
   -4.1478   -0.1897  -13.5276 H   0  0  0  0  0  0  0  0  0  0  0  0
   -5.4974    2.7968  -13.1761 H   0  0  0  0  0  0  0  0  0  0  0  0
   -6.0310    4.4768  -14.9184 H   0  0  0  0  0  0  0  0  0  0  0  0
   -5.7120    4.1610  -18.2280 H   0  0  0  0  0  0  0  0  0  0  0  0
   -8.5013    6.6375  -20.3615 H   0  0  0  0  0  0  0  0  0  0  0  0
  -10.4933    6.8909  -18.9239 H   0  0  0  0  0  0  0  0  0  0  0  0
  -12.7144    6.5639  -16.5077 H   0  0  0  0  0  0  0  0  0  0  0  0
  -11.6781    7.0827  -17.8801 H   0  0  0  0  0  0  0  0  0  0  0  0
  -12.4147    5.4444  -17.8801 H   0  0  0  0  0  0  0  0  0  0  0  0
  -12.9597    5.8363  -14.9820 H   0  0  0  0  0  0  0  0  0  0  0  0
  -13.7287    4.2063  -13.1841 H   0  0  0  0  0  0  0  0  0  0  0  0
  -12.7075    1.7473  -10.7190 H   0  0  0  0  0  0  0  0  0  0  0  0
  -13.9940    2.2917  -11.8482 H   0  0  0  0  0  0  0  0  0  0  0  0
  -13.4667    0.5746  -11.8482 H   0  0  0  0  0  0  0  0  0  0  0  0
  -10.7211    0.0515  -11.2165 H   0  0  0  0  0  0  0  0  0  0  0  0
  -11.4011   -0.8811  -12.5929 H   0  0  0  0  0  0  0  0  0  0  0  0
   -9.6660   -0.4165  -12.5929 H   0  0  0  0  0  0  0  0  0  0  0  0
   -9.3982    3.4609  -15.9548 H   0  0  0  0  0  0  0  0  0  0  0  0
   -6.1678    1.3659  -17.8936 H   0  0  0  0  0  0  0  0  0  0  0  0
   -5.7190   -1.9510  -18.3440 H   0  0  0  0  0  0  0  0  0  0  0  0
   -4.8360   -0.4890  -18.3660 H   0  0  0  0  0  0  0  0  0  0  0  0
  1  2  1  0
  2  3  1  0
  3  4  2  0
  4  5  1  0
  5  6  1  0
  6  7  1  0
  7  8  2  0
  8  9  1  0
  9 10  2  0
 10 11  1  0
 11 12  1  0
 12 13  1  0
 12 14  1  0
 14 15  1  0
 15 16  2  0
 16 17  1  0
 17 18  2  0
 18 19  1  0
 18 20  1  0
 20 21  1  0
 20 22  1  0
 22 23  2  0
 23 24  1  0
 11 25  2  0
  5 26  2  0
 26 27  1  0
 27 28  1  0
 28 29  1  0
 28 30  2  0
 28 31  2  0
 27  2  2  0
 25  7  1  0
 24 14  2  0
 23 17  1  0
  1 32  1  0
  1 33  1  0
  1 34  1  0
  3 35  1  0
  4 36  1  0
  6 37  1  0
  9 38  1  0
 10 39  1  0
 13 40  1  0
 13 41  1  0
 13 42  1  0
 15 43  1  0
 16 44  1  0
 19 45  1  0
 19 46  1  0
 19 47  1  0
 21 48  1  0
 21 49  1  0
 21 50  1  0
 24 51  1  0
 26 52  1  0
 29 53  1  0
 29 54  1  0
M  END
>  <meeko>  (7) 
{"is_sidechain": false}

>  <vina_affinity_kcal_mol>  (7) 
-8.909

>  <pose_rank>  (7) 
7

$$$$

     RDKit          3D

 54 57  0  0  0  0  0  0  0  0999 V2000
   -5.8680   -1.8840  -16.0840 C   0  0  0  0  0  0  0  0  0  0  0  0
   -6.0330   -0.4220  -16.3920 C   0  0  0  0  0  0  0  0  0  0  0  0
   -5.7490    0.0350  -17.6860 C   0  0  0  0  0  0  0  0  0  0  0  0
   -5.8820    1.3890  -18.0190 C   0  0  0  0  0  0  0  0  0  0  0  0
   -6.3010    2.3330  -17.0810 C   0  0  0  0  0  0  0  0  0  0  0  0
   -6.4420    3.6960  -17.3550 N   0  0  0  0  0  0  0  0  0  0  0  0
   -7.5190    4.5200  -17.6700 C   0  0  0  0  0  0  0  0  0  0  0  0
   -7.3870    5.1890  -18.8240 N   0  0  0  0  0  0  0  0  0  0  0  0
   -8.4030    5.9890  -19.1820 C   0  0  0  0  0  0  0  0  0  0  0  0
   -9.5360    6.1520  -18.4270 C   0  0  0  0  0  0  0  0  0  0  0  0
   -9.6020    5.4420  -17.2420 C   0  0  0  0  0  0  0  0  0  0  0  0
  -10.7670    5.5590  -16.4350 N   0  0  0  0  0  0  0  0  0  0  0  0
  -11.9360    6.0560  -17.1720 C   0  0  0  0  0  0  0  0  0  0  0  0
  -11.1530    4.6270  -15.4200 C   0  0  0  0  0  0  0  0  0  0  0  0
  -12.3190    4.8790  -14.6110 C   0  0  0  0  0  0  0  0  0  0  0  0
  -12.7860    4.0260  -13.5870 C   0  0  0  0  0  0  0  0  0  0  0  0
  -11.9730    2.9080  -13.4540 C   0  0  0  0  0  0  0  0  0  0  0  0
  -12.1450    1.8840  -12.5530 C   0  0  0  0  0  0  0  0  0  0  0  0
  -13.1600    1.6220  -11.5040 C   0  0  0  0  0  0  0  0  0  0  0  0
  -11.0910    1.0370  -12.8070 N   0  0  0  0  0  0  0  0  0  0  0  0
  -10.7970   -0.2060  -12.1300 C   0  0  0  0  0  0  0  0  0  0  0  0
  -10.2780    1.4390  -13.8060 N   0  0  0  0  0  0  0  0  0  0  0  0
  -10.7950    2.6040  -14.2270 C   0  0  0  0  0  0  0  0  0  0  0  0
  -10.3520    3.4690  -15.2400 C   0  0  0  0  0  0  0  0  0  0  0  0
   -8.5960    4.6200  -16.8780 N   0  0  0  0  0  0  0  0  0  0  0  0
   -6.5700    1.8790  -15.7820 C   0  0  0  0  0  0  0  0  0  0  0  0
   -6.4340    0.5230  -15.4350 C   0  0  0  0  0  0  0  0  0  0  0  0
   -6.7640    0.0190  -13.7660 S   0  0  0  0  0  0  0  0  0  0  0  0
   -7.4820    1.3560  -13.0360 N   0  0  0  0  0  0  0  0  0  0  0  0
   -7.7870   -0.9990  -13.7920 O   0  0  0  0  0  0  0  0  0  0  0  0
   -5.5120   -0.1440  -13.0670 O   0  0  0  0  0  0  0  0  0  0  0  0
   -5.8516   -2.0295  -14.9938 H   0  0  0  0  0  0  0  0  0  0  0  0
   -6.7083   -2.4469  -16.5164 H   0  0  0  0  0  0  0  0  0  0  0  0
   -4.9234   -2.2455  -16.5164 H   0  0  0  0  0  0  0  0  0  0  0  0
   -5.4164   -0.6808  -18.4522 H   0  0  0  0  0  0  0  0  0  0  0  0
   -5.6508    1.7156  -19.0436 H   0  0  0  0  0  0  0  0  0  0  0  0
   -5.6160    4.2720  -17.2770 H   0  0  0  0  0  0  0  0  0  0  0  0
   -8.3229    6.5422  -20.1294 H   0  0  0  0  0  0  0  0  0  0  0  0
  -10.3527    6.8152  -18.7482 H   0  0  0  0  0  0  0  0  0  0  0  0
  -12.7068    6.3837  -16.4590 H   0  0  0  0  0  0  0  0  0  0  0  0
  -11.6370    6.9048  -17.8045 H   0  0  0  0  0  0  0  0  0  0  0  0
  -12.3398    5.2517  -17.8045 H   0  0  0  0  0  0  0  0  0  0  0  0
  -12.8856    5.8017  -14.8051 H   0  0  0  0  0  0  0  0  0  0  0  0
  -13.6782    4.2218  -12.9741 H   0  0  0  0  0  0  0  0  0  0  0  0
  -12.7006    1.7406  -10.5116 H   0  0  0  0  0  0  0  0  0  0  0  0
  -13.9906    2.3352  -11.6112 H   0  0  0  0  0  0  0  0  0  0  0  0
  -13.5416    0.5959  -11.6112 H   0  0  0  0  0  0  0  0  0  0  0  0
  -10.8342   -0.0486  -11.0420 H   0  0  0  0  0  0  0  0  0  0  0  0
  -11.5406   -0.9643  -12.4165 H   0  0  0  0  0  0  0  0  0  0  0  0
   -9.7925   -0.5509  -12.4165 H   0  0  0  0  0  0  0  0  0  0  0  0
   -9.4564    3.2658  -15.8455 H   0  0  0  0  0  0  0  0  0  0  0  0
   -6.8947    2.5997  -15.0171 H   0  0  0  0  0  0  0  0  0  0  0  0
   -7.4000    1.2620  -12.0220 H   0  0  0  0  0  0  0  0  0  0  0  0
   -8.4460    1.4350  -13.3620 H   0  0  0  0  0  0  0  0  0  0  0  0
  1  2  1  0
  2  3  1  0
  3  4  2  0
  4  5  1  0
  5  6  1  0
  6  7  1  0
  7  8  2  0
  8  9  1  0
  9 10  2  0
 10 11  1  0
 11 12  1  0
 12 13  1  0
 12 14  1  0
 14 15  1  0
 15 16  2  0
 16 17  1  0
 17 18  2  0
 18 19  1  0
 18 20  1  0
 20 21  1  0
 20 22  1  0
 22 23  2  0
 23 24  1  0
 11 25  2  0
  5 26  2  0
 26 27  1  0
 27 28  1  0
 28 29  1  0
 28 30  2  0
 28 31  2  0
 27  2  2  0
 25  7  1  0
 24 14  2  0
 23 17  1  0
  1 32  1  0
  1 33  1  0
  1 34  1  0
  3 35  1  0
  4 36  1  0
  6 37  1  0
  9 38  1  0
 10 39  1  0
 13 40  1  0
 13 41  1  0
 13 42  1  0
 15 43  1  0
 16 44  1  0
 19 45  1  0
 19 46  1  0
 19 47  1  0
 21 48  1  0
 21 49  1  0
 21 50  1  0
 24 51  1  0
 26 52  1  0
 29 53  1  0
 29 54  1  0
M  END
>  <meeko>  (8) 
{"is_sidechain": false}

>  <vina_affinity_kcal_mol>  (8) 
-8.866

>  <pose_rank>  (8) 
8

$$$$

     RDKit          3D

 54 57  0  0  0  0  0  0  0  0999 V2000
  -11.9040    0.8460  -11.5960 C   0  0  0  0  0  0  0  0  0  0  0  0
  -11.5760    1.7990  -12.7110 C   0  0  0  0  0  0  0  0  0  0  0  0
  -12.2720    3.0120  -12.7930 C   0  0  0  0  0  0  0  0  0  0  0  0
  -12.0050    3.9300  -13.8160 C   0  0  0  0  0  0  0  0  0  0  0  0
  -11.0390    3.6750  -14.7910 C   0  0  0  0  0  0  0  0  0  0  0  0
  -10.7390    4.5490  -15.8390 N   0  0  0  0  0  0  0  0  0  0  0  0
   -9.6860    4.6600  -16.7430 C   0  0  0  0  0  0  0  0  0  0  0  0
   -9.9500    5.4220  -17.8140 N   0  0  0  0  0  0  0  0  0  0  0  0
   -8.9640    5.5720  -18.7110 C   0  0  0  0  0  0  0  0  0  0  0  0
   -7.7320    4.9830  -18.5830 C   0  0  0  0  0  0  0  0  0  0  0  0
   -7.5300    4.2000  -17.4610 C   0  0  0  0  0  0  0  0  0  0  0  0
   -6.2610    3.5870  -17.2710 N   0  0  0  0  0  0  0  0  0  0  0  0
   -5.2220    4.5260  -16.8310 C   0  0  0  0  0  0  0  0  0  0  0  0
   -6.0600    2.2890  -16.7020 C   0  0  0  0  0  0  0  0  0  0  0  0
   -6.0830    1.1180  -17.5430 C   0  0  0  0  0  0  0  0  0  0  0  0
   -5.8960   -0.2040  -17.0840 C   0  0  0  0  0  0  0  0  0  0  0  0
   -5.6880   -0.2350  -15.7100 C   0  0  0  0  0  0  0  0  0  0  0  0
   -5.4740   -1.3600  -14.9490 C   0  0  0  0  0  0  0  0  0  0  0  0
   -5.3900   -2.8030  -15.2810 C   0  0  0  0  0  0  0  0  0  0  0  0
   -5.3380   -0.8740  -13.6700 N   0  0  0  0  0  0  0  0  0  0  0  0
   -5.0970   -1.6460  -12.4720 C   0  0  0  0  0  0  0  0  0  0  0  0
   -5.4340    0.4680  -13.5670 N   0  0  0  0  0  0  0  0  0  0  0  0
   -5.6590    0.8970  -14.8190 C   0  0  0  0  0  0  0  0  0  0  0  0
   -5.8480    2.2010  -15.3010 C   0  0  0  0  0  0  0  0  0  0  0  0
   -8.5060    4.0550  -16.5410 N   0  0  0  0  0  0  0  0  0  0  0  0
  -10.3530    2.4540  -14.7190 C   0  0  0  0  0  0  0  0  0  0  0  0
  -10.6170    1.5230  -13.6980 C   0  0  0  0  0  0  0  0  0  0  0  0
   -9.7330   -0.0150  -13.6800 S   0  0  0  0  0  0  0  0  0  0  0  0
   -8.5010    0.2000  -12.5520 N   0  0  0  0  0  0  0  0  0  0  0  0
  -10.5940   -1.0280  -13.1190 O   0  0  0  0  0  0  0  0  0  0  0  0
   -9.0450   -0.1780  -14.9380 O   0  0  0  0  0  0  0  0  0  0  0  0
  -11.7336    1.3410  -10.6286 H   0  0  0  0  0  0  0  0  0  0  0  0
  -12.9585    0.5421  -11.6717 H   0  0  0  0  0  0  0  0  0  0  0  0
  -11.2600   -0.0425  -11.6717 H   0  0  0  0  0  0  0  0  0  0  0  0
  -13.0404    3.2470  -12.0418 H   0  0  0  0  0  0  0  0  0  0  0  0
  -12.5692    4.8736  -13.8522 H   0  0  0  0  0  0  0  0  0  0  0  0
  -11.4270    5.2510  -16.0690 H   0  0  0  0  0  0  0  0  0  0  0  0
   -9.1532    6.1995  -19.5944 H   0  0  0  0  0  0  0  0  0  0  0  0
   -6.9431    5.1264  -19.3360 H   0  0  0  0  0  0  0  0  0  0  0  0
   -5.1931    4.5521  -15.7317 H   0  0  0  0  0  0  0  0  0  0  0  0
   -4.2450    4.1984  -17.2158 H   0  0  0  0  0  0  0  0  0  0  0  0
   -5.4494    5.5311  -17.2158 H   0  0  0  0  0  0  0  0  0  0  0  0
   -6.2588    1.2651  -18.6189 H   0  0  0  0  0  0  0  0  0  0  0  0
   -5.9127   -1.0941  -17.7300 H   0  0  0  0  0  0  0  0  0  0  0  0
   -5.3557   -3.3915  -14.3523 H   0  0  0  0  0  0  0  0  0  0  0  0
   -6.2726   -3.0961  -15.8685 H   0  0  0  0  0  0  0  0  0  0  0  0
   -4.4794   -2.9917  -15.8685 H   0  0  0  0  0  0  0  0  0  0  0  0
   -5.2920   -1.0213  -11.5878 H   0  0  0  0  0  0  0  0  0  0  0  0
   -5.7651   -2.5197  -12.4582 H   0  0  0  0  0  0  0  0  0  0  0  0
   -4.0505   -1.9845  -12.4582 H   0  0  0  0  0  0  0  0  0  0  0  0
   -5.8331    3.0845  -14.6458 H   0  0  0  0  0  0  0  0  0  0  0  0
   -9.5918    2.2191  -15.4775 H   0  0  0  0  0  0  0  0  0  0  0  0
   -7.7010    0.6340  -13.0170 H   0  0  0  0  0  0  0  0  0  0  0  0
   -8.2830   -0.7000  -12.1230 H   0  0  0  0  0  0  0  0  0  0  0  0
  1  2  1  0
  2  3  1  0
  3  4  2  0
  4  5  1  0
  5  6  1  0
  6  7  1  0
  7  8  2  0
  8  9  1  0
  9 10  2  0
 10 11  1  0
 11 12  1  0
 12 13  1  0
 12 14  1  0
 14 15  1  0
 15 16  2  0
 16 17  1  0
 17 18  2  0
 18 19  1  0
 18 20  1  0
 20 21  1  0
 20 22  1  0
 22 23  2  0
 23 24  1  0
 11 25  2  0
  5 26  2  0
 26 27  1  0
 27 28  1  0
 28 29  1  0
 28 30  2  0
 28 31  2  0
 27  2  2  0
 25  7  1  0
 24 14  2  0
 23 17  1  0
  1 32  1  0
  1 33  1  0
  1 34  1  0
  3 35  1  0
  4 36  1  0
  6 37  1  0
  9 38  1  0
 10 39  1  0
 13 40  1  0
 13 41  1  0
 13 42  1  0
 15 43  1  0
 16 44  1  0
 19 45  1  0
 19 46  1  0
 19 47  1  0
 21 48  1  0
 21 49  1  0
 21 50  1  0
 24 51  1  0
 26 52  1  0
 29 53  1  0
 29 54  1  0
M  END
>  <meeko>  (9) 
{"is_sidechain": false}

>  <vina_affinity_kcal_mol>  (9) 
-8.848

>  <pose_rank>  (9) 
9

$$$$

     RDKit          3D

 54 57  0  0  0  0  0  0  0  0999 V2000
   -8.5000   -2.5530   -9.4300 C   0  0  0  0  0  0  0  0  0  0  0  0
   -7.7270   -1.9210  -10.5530 C   0  0  0  0  0  0  0  0  0  0  0  0
   -6.3360   -1.8030  -10.4370 C   0  0  0  0  0  0  0  0  0  0  0  0
   -5.5740   -1.2170  -11.4550 C   0  0  0  0  0  0  0  0  0  0  0  0
   -6.1660   -0.7290  -12.6200 C   0  0  0  0  0  0  0  0  0  0  0  0
   -5.4570   -0.1250  -13.6630 N   0  0  0  0  0  0  0  0  0  0  0  0
   -5.8190    0.4960  -14.8550 C   0  0  0  0  0  0  0  0  0  0  0  0
   -5.3650   -0.1130  -15.9590 N   0  0  0  0  0  0  0  0  0  0  0  0
   -5.6950    0.4380  -17.1370 C   0  0  0  0  0  0  0  0  0  0  0  0
   -6.4510    1.5770  -17.2500 C   0  0  0  0  0  0  0  0  0  0  0  0
   -6.8760    2.1610  -16.0720 C   0  0  0  0  0  0  0  0  0  0  0  0
   -7.6830    3.3310  -16.1370 N   0  0  0  0  0  0  0  0  0  0  0  0
   -7.6190    4.0080  -17.4390 C   0  0  0  0  0  0  0  0  0  0  0  0
   -8.9820    3.4600  -15.5500 C   0  0  0  0  0  0  0  0  0  0  0  0
   -9.8860    4.4830  -16.0120 C   0  0  0  0  0  0  0  0  0  0  0  0
  -11.1860    4.6950  -15.5020 C   0  0  0  0  0  0  0  0  0  0  0  0
  -11.4840    3.7900  -14.4910 C   0  0  0  0  0  0  0  0  0  0  0  0
  -12.6620    3.7220  -13.7860 C   0  0  0  0  0  0  0  0  0  0  0  0
  -13.9190    4.5070  -13.8420 C   0  0  0  0  0  0  0  0  0  0  0  0
  -12.4630    2.6840  -12.9050 N   0  0  0  0  0  0  0  0  0  0  0  0
  -13.4010    2.1920  -11.9220 C   0  0  0  0  0  0  0  0  0  0  0  0
  -11.2600    2.0840  -13.0100 N   0  0  0  0  0  0  0  0  0  0  0  0
  -10.6220    2.7510  -13.9850 C   0  0  0  0  0  0  0  0  0  0  0  0
   -9.3340    2.5620  -14.5090 C   0  0  0  0  0  0  0  0  0  0  0  0
   -6.5670    1.6080  -14.8800 N   0  0  0  0  0  0  0  0  0  0  0  0
   -7.5610   -0.8310  -12.7300 C   0  0  0  0  0  0  0  0  0  0  0  0
   -8.3360   -1.4130  -11.7120 C   0  0  0  0  0  0  0  0  0  0  0  0
  -10.0990   -1.4870  -11.9010 S   0  0  0  0  0  0  0  0  0  0  0  0
  -10.4060   -0.8270  -13.4190 N   0  0  0  0  0  0  0  0  0  0  0  0
  -10.4880   -2.8730  -11.9990 O   0  0  0  0  0  0  0  0  0  0  0  0
  -10.7110   -0.5640  -10.9750 O   0  0  0  0  0  0  0  0  0  0  0  0
   -8.0886   -2.2166   -8.4669 H   0  0  0  0  0  0  0  0  0  0  0  0
   -9.5571   -2.2572   -9.5005 H   0  0  0  0  0  0  0  0  0  0  0  0
   -8.4201   -3.6478   -9.5005 H   0  0  0  0  0  0  0  0  0  0  0  0
   -5.8345   -2.1766   -9.5320 H   0  0  0  0  0  0  0  0  0  0  0  0
   -4.4835   -1.1397  -11.3333 H   0  0  0  0  0  0  0  0  0  0  0  0
   -4.4550   -0.0540  -13.5610 H   0  0  0  0  0  0  0  0  0  0  0  0
   -5.3416   -0.0480  -18.0584 H   0  0  0  0  0  0  0  0  0  0  0  0
   -6.7065    2.0047  -18.2307 H   0  0  0  0  0  0  0  0  0  0  0  0
   -7.5165    5.0922  -17.2839 H   0  0  0  0  0  0  0  0  0  0  0  0
   -6.7521    3.6349  -18.0041 H   0  0  0  0  0  0  0  0  0  0  0  0
   -8.5404    3.8039  -18.0041 H   0  0  0  0  0  0  0  0  0  0  0  0
   -9.5391    5.1454  -16.8187 H   0  0  0  0  0  0  0  0  0  0  0  0
  -11.8736    5.4758  -15.8592 H   0  0  0  0  0  0  0  0  0  0  0  0
  -14.2630    4.7218  -12.8195 H   0  0  0  0  0  0  0  0  0  0  0  0
  -13.7374    5.4525  -14.3740 H   0  0  0  0  0  0  0  0  0  0  0  0
  -14.6889    3.9289  -14.3740 H   0  0  0  0  0  0  0  0  0  0  0  0
  -13.0142    2.3949  -10.9124 H   0  0  0  0  0  0  0  0  0  0  0  0
  -14.3686    2.6987  -12.0527 H   0  0  0  0  0  0  0  0  0  0  0  0
  -13.5342    1.1079  -12.0527 H   0  0  0  0  0  0  0  0  0  0  0  0
   -8.6521    1.7806  -14.1423 H   0  0  0  0  0  0  0  0  0  0  0  0
   -8.0590   -0.4471  -13.6326 H   0  0  0  0  0  0  0  0  0  0  0  0
   -9.5500   -0.8670  -13.9760 H   0  0  0  0  0  0  0  0  0  0  0  0
  -10.7710    0.1190  -13.3020 H   0  0  0  0  0  0  0  0  0  0  0  0
  1  2  1  0
  2  3  1  0
  3  4  2  0
  4  5  1  0
  5  6  1  0
  6  7  1  0
  7  8  2  0
  8  9  1  0
  9 10  2  0
 10 11  1  0
 11 12  1  0
 12 13  1  0
 12 14  1  0
 14 15  1  0
 15 16  2  0
 16 17  1  0
 17 18  2  0
 18 19  1  0
 18 20  1  0
 20 21  1  0
 20 22  1  0
 22 23  2  0
 23 24  1  0
 11 25  2  0
  5 26  2  0
 26 27  1  0
 27 28  1  0
 28 29  1  0
 28 30  2  0
 28 31  2  0
 27  2  2  0
 25  7  1  0
 24 14  2  0
 23 17  1  0
  1 32  1  0
  1 33  1  0
  1 34  1  0
  3 35  1  0
  4 36  1  0
  6 37  1  0
  9 38  1  0
 10 39  1  0
 13 40  1  0
 13 41  1  0
 13 42  1  0
 15 43  1  0
 16 44  1  0
 19 45  1  0
 19 46  1  0
 19 47  1  0
 21 48  1  0
 21 49  1  0
 21 50  1  0
 24 51  1  0
 26 52  1  0
 29 53  1  0
 29 54  1  0
M  END
>  <meeko>  (10) 
{"is_sidechain": false}

>  <vina_affinity_kcal_mol>  (10) 
-8.61

>  <pose_rank>  (10) 
10

$$$$
