
     RDKit          3D

 66 70  0  0  0  0  0  0  0  0999 V2000
  -41.8480  157.9380    3.1660 C   0  0  0  0  0  0  0  0  0  0  0  0
  -41.2400  158.7840    2.0800 C   0  0  0  0  0  0  0  0  0  0  0  0
  -42.0640  159.6230    1.3120 C   0  0  0  0  0  0  0  0  0  0  0  0
  -41.5250  160.4210    0.3010 C   0  0  0  0  0  0  0  0  0  0  0  0
  -40.1510  160.3830    0.0390 C   0  0  0  0  0  0  0  0  0  0  0  0
  -39.5350  161.2180   -1.0300 C   0  0  0  0  0  0  0  0  0  0  0  0
  -38.9580  162.2470   -0.7020 O   0  0  0  0  0  0  0  0  0  0  0  0
  -39.6550  160.7030   -2.3090 N   0  0  0  0  0  0  0  0  0  0  0  0
  -39.2050  161.2880   -3.5110 C   0  0  0  0  0  0  0  0  0  0  0  0
  -38.9930  160.5820   -4.6910 C   0  0  0  0  0  0  0  0  0  0  0  0
  -38.5490  161.2410   -5.8410 C   0  0  0  0  0  0  0  0  0  0  0  0
  -38.2990  162.6230   -5.8400 C   0  0  0  0  0  0  0  0  0  0  0  0
  -37.8340  163.2790   -7.1280 C   0  0  0  0  0  0  0  0  0  0  0  0
  -37.7930  162.3400   -8.2490 N   0  0  0  0  0  0  0  0  0  0  0  0
  -36.4210  161.9980   -8.6840 C   0  0  0  0  0  0  0  0  0  0  0  0
  -35.9670  162.7200   -9.9730 C   0  0  0  0  0  0  0  0  0  0  0  0
  -36.8290  162.4260  -11.1350 N   0  0  0  0  0  0  0  0  0  0  0  0
  -36.7160  163.4750  -12.1430 C   0  0  0  0  0  0  0  0  0  0  0  0
  -38.2290  162.1930  -10.7280 C   0  0  0  0  0  0  0  0  0  0  0  0
  -38.6050  162.8420   -9.3780 C   0  0  0  0  0  0  0  0  0  0  0  0
  -38.4830  163.3480   -4.6420 C   0  0  0  0  0  0  0  0  0  0  0  0
  -38.2300  164.8400   -4.5370 C   0  0  0  0  0  0  0  0  0  0  0  0
  -38.6950  165.5640   -5.5920 F   0  0  0  0  0  0  0  0  0  0  0  0
  -36.8910  165.1260   -4.4910 F   0  0  0  0  0  0  0  0  0  0  0  0
  -38.7450  165.4010   -3.4100 F   0  0  0  0  0  0  0  0  0  0  0  0
  -38.9480  162.6640   -3.4970 C   0  0  0  0  0  0  0  0  0  0  0  0
  -39.3170  159.5680    0.8110 C   0  0  0  0  0  0  0  0  0  0  0  0
  -39.8560  158.7660    1.8240 C   0  0  0  0  0  0  0  0  0  0  0  0
  -38.9700  157.9370    2.5870 C   0  0  0  0  0  0  0  0  0  0  0  0
  -38.2420  157.2360    3.2360 C   0  0  0  0  0  0  0  0  0  0  0  0
  -37.3690  156.4220    4.0010 C   0  0  0  0  0  0  0  0  0  0  0  0
  -37.5680  155.1350    4.4500 C   0  0  0  0  0  0  0  0  0  0  0  0
  -36.4860  154.6810    5.1660 N   0  0  0  0  0  0  0  0  0  0  0  0
  -35.6280  155.6810    5.1540 C   0  0  0  0  0  0  0  0  0  0  0  0
  -34.3410  155.8010    5.7240 C   0  0  0  0  0  0  0  0  0  0  0  0
  -33.6580  156.9420    5.5690 C   0  0  0  0  0  0  0  0  0  0  0  0
  -34.3140  158.0230    4.7940 C   0  0  0  0  0  0  0  0  0  0  0  0
  -35.4880  157.9750    4.2490 N   0  0  0  0  0  0  0  0  0  0  0  0
  -36.1190  156.7750    4.4540 N   0  0  0  0  0  0  0  0  0  0  0  0
  -41.5594  158.3396    4.1485 H   0  0  0  0  0  0  0  0  0  0  0  0
  -42.9439  157.9522    3.0716 H   0  0  0  0  0  0  0  0  0  0  0  0
  -41.4852  156.9039    3.0716 H   0  0  0  0  0  0  0  0  0  0  0  0
  -43.1458  159.6517    1.5092 H   0  0  0  0  0  0  0  0  0  0  0  0
  -42.1799  161.0790   -0.2890 H   0  0  0  0  0  0  0  0  0  0  0  0
  -40.0470  159.7750   -2.3920 H   0  0  0  0  0  0  0  0  0  0  0  0
  -39.1761  159.4977   -4.7191 H   0  0  0  0  0  0  0  0  0  0  0  0
  -38.3923  160.6656   -6.7653 H   0  0  0  0  0  0  0  0  0  0  0  0
  -38.5258  164.0970   -7.3775 H   0  0  0  0  0  0  0  0  0  0  0  0
  -36.8118  163.6512   -6.9647 H   0  0  0  0  0  0  0  0  0  0  0  0
  -35.7256  162.2663   -7.8750 H   0  0  0  0  0  0  0  0  0  0  0  0
  -36.4193  160.9209   -8.9075 H   0  0  0  0  0  0  0  0  0  0  0  0
  -35.9827  163.8047   -9.7909 H   0  0  0  0  0  0  0  0  0  0  0  0
  -34.9567  162.3577  -10.2137 H   0  0  0  0  0  0  0  0  0  0  0  0
  -36.6109  164.4509  -11.6464 H   0  0  0  0  0  0  0  0  0  0  0  0
  -35.8330  163.2863  -12.7712 H   0  0  0  0  0  0  0  0  0  0  0  0
  -37.6189  163.4786  -12.7712 H   0  0  0  0  0  0  0  0  0  0  0  0
  -38.8888  162.6048  -11.5058 H   0  0  0  0  0  0  0  0  0  0  0  0
  -38.3487  161.1066  -10.6041 H   0  0  0  0  0  0  0  0  0  0  0  0
  -38.4584  163.9292   -9.4589 H   0  0  0  0  0  0  0  0  0  0  0  0
  -39.6536  162.5831   -9.1695 H   0  0  0  0  0  0  0  0  0  0  0  0
  -39.1129  163.2288   -2.5676 H   0  0  0  0  0  0  0  0  0  0  0  0
  -38.2335  159.5571    0.6216 H   0  0  0  0  0  0  0  0  0  0  0  0
  -38.4771  154.5456    4.2598 H   0  0  0  0  0  0  0  0  0  0  0  0
  -33.9042  154.9649    6.2898 H   0  0  0  0  0  0  0  0  0  0  0  0
  -32.6535  157.0721    5.9980 H   0  0  0  0  0  0  0  0  0  0  0  0
  -33.7476  158.9578    4.6698 H   0  0  0  0  0  0  0  0  0  0  0  0
  1  2  1  0
  2  3  1  0
  3  4  2  0
  4  5  1  0
  5  6  1  0
  6  7  2  0
  6  8  1  0
  8  9  1  0
  9 10  1  0
 10 11  2  0
 11 12  1  0
 12 13  1  0
 13 14  1  0
 14 15  1  0
 15 16  1  0
 16 17  1  0
 17 18  1  0
 17 19  1  0
 19 20  1  0
 12 21  2  0
 21 22  1  0
 22 23  1  0
 22 24  1  0
 22 25  1  0
 21 26  1  0
  5 27  2  0
 27 28  1  0
 28 29  1  0
 29 30  3  0
 30 31  1  0
 31 32  2  0
 32 33  1  0
 33 34  2  0
 34 35  1  0
 35 36  2  0
 36 37  1  0
 37 38  2  0
 38 39  1  0
 28  2  2  0
 39 31  1  0
 26  9  2  0
 39 34  1  0
 20 14  1  0
  1 40  1  0
  1 41  1  0
  1 42  1  0
  3 43  1  0
  4 44  1  0
  8 45  1  0
 10 46  1  0
 11 47  1  0
 13 48  1  0
 13 49  1  0
 15 50  1  0
 15 51  1  0
 16 52  1  0
 16 53  1  0
 18 54  1  0
 18 55  1  0
 18 56  1  0
 19 57  1  0
 19 58  1  0
 20 59  1  0
 20 60  1  0
 26 61  1  0
 27 62  1  0
 32 63  1  0
 35 64  1  0
 36 65  1  0
 37 66  1  0
M  END
>  <meeko>  (1) 
{"is_sidechain": false}

>  <vina_affinity_kcal_mol>  (1) 
-12.988

>  <pose_rank>  (1) 
1

$$$$

     RDKit          3D

 66 70  0  0  0  0  0  0  0  0999 V2000
  -42.4520  160.7750    0.1050 C   0  0  0  0  0  0  0  0  0  0  0  0
  -41.3480  160.0180    0.7940 C   0  0  0  0  0  0  0  0  0  0  0  0
  -41.6680  159.0640    1.7730 C   0  0  0  0  0  0  0  0  0  0  0  0
  -40.6640  158.3450    2.4250 C   0  0  0  0  0  0  0  0  0  0  0  0
  -39.3210  158.5790    2.1080 C   0  0  0  0  0  0  0  0  0  0  0  0
  -38.2180  157.8340    2.7790 C   0  0  0  0  0  0  0  0  0  0  0  0
  -37.1010  157.8800    2.2800 O   0  0  0  0  0  0  0  0  0  0  0  0
  -38.5830  157.1860    3.9460 N   0  0  0  0  0  0  0  0  0  0  0  0
  -37.7660  156.3800    4.7670 C   0  0  0  0  0  0  0  0  0  0  0  0
  -38.2500  155.4060    5.6340 C   0  0  0  0  0  0  0  0  0  0  0  0
  -37.3700  154.6480    6.4110 C   0  0  0  0  0  0  0  0  0  0  0  0
  -35.9810  154.8480    6.3450 C   0  0  0  0  0  0  0  0  0  0  0  0
  -35.0790  153.9790    7.2040 C   0  0  0  0  0  0  0  0  0  0  0  0
  -34.7320  152.7170    6.5490 N   0  0  0  0  0  0  0  0  0  0  0  0
  -35.5530  152.4250    5.3540 C   0  0  0  0  0  0  0  0  0  0  0  0
  -36.6630  151.3760    5.5890 C   0  0  0  0  0  0  0  0  0  0  0  0
  -36.1380  150.0680    6.0300 N   0  0  0  0  0  0  0  0  0  0  0  0
  -37.1680  149.3040    6.7270 C   0  0  0  0  0  0  0  0  0  0  0  0
  -34.9120  150.2190    6.8400 C   0  0  0  0  0  0  0  0  0  0  0  0
  -34.7760  151.6000    7.5170 C   0  0  0  0  0  0  0  0  0  0  0  0
  -35.4760  155.8520    5.4900 C   0  0  0  0  0  0  0  0  0  0  0  0
  -33.9960  156.1520    5.3570 C   0  0  0  0  0  0  0  0  0  0  0  0
  -33.4310  156.6960    6.4710 F   0  0  0  0  0  0  0  0  0  0  0  0
  -33.7490  157.0680    4.3690 F   0  0  0  0  0  0  0  0  0  0  0  0
  -33.2490  155.0650    5.0210 F   0  0  0  0  0  0  0  0  0  0  0  0
  -36.3850  156.5950    4.7030 C   0  0  0  0  0  0  0  0  0  0  0  0
  -38.9900  159.5110    1.1200 C   0  0  0  0  0  0  0  0  0  0  0  0
  -39.9960  160.2330    0.4660 C   0  0  0  0  0  0  0  0  0  0  0  0
  -39.6160  161.1860   -0.5340 C   0  0  0  0  0  0  0  0  0  0  0  0
  -39.3160  161.9890   -1.3750 C   0  0  0  0  0  0  0  0  0  0  0  0
  -38.9610  162.9230   -2.3810 C   0  0  0  0  0  0  0  0  0  0  0  0
  -38.7430  164.2770   -2.2580 C   0  0  0  0  0  0  0  0  0  0  0  0
  -38.4160  164.8450   -3.4660 N   0  0  0  0  0  0  0  0  0  0  0  0
  -38.4320  163.8460   -4.3250 C   0  0  0  0  0  0  0  0  0  0  0  0
  -38.1760  163.8180   -5.7140 C   0  0  0  0  0  0  0  0  0  0  0  0
  -38.2580  162.6560   -6.3730 C   0  0  0  0  0  0  0  0  0  0  0  0
  -38.6200  161.4540   -5.5830 C   0  0  0  0  0  0  0  0  0  0  0  0
  -38.8660  161.4140   -4.3120 N   0  0  0  0  0  0  0  0  0  0  0  0
  -38.7610  162.6440   -3.7130 N   0  0  0  0  0  0  0  0  0  0  0  0
  -43.1123  161.2278    0.8593 H   0  0  0  0  0  0  0  0  0  0  0  0
  -42.0172  161.5659   -0.5239 H   0  0  0  0  0  0  0  0  0  0  0  0
  -43.0331  160.0844   -0.5239 H   0  0  0  0  0  0  0  0  0  0  0  0
  -42.7219  158.8807    2.0295 H   0  0  0  0  0  0  0  0  0  0  0  0
  -40.9281  157.5962    3.1863 H   0  0  0  0  0  0  0  0  0  0  0  0
  -39.5180  157.3580    4.2910 H   0  0  0  0  0  0  0  0  0  0  0  0
  -39.3334  155.2311    5.7086 H   0  0  0  0  0  0  0  0  0  0  0  0
  -37.7727  153.8797    7.0875 H   0  0  0  0  0  0  0  0  0  0  0  0
  -34.1528  154.5331    7.4166 H   0  0  0  0  0  0  0  0  0  0  0  0
  -35.6256  153.7383    8.1277 H   0  0  0  0  0  0  0  0  0  0  0  0
  -36.0273  153.3611    5.0242 H   0  0  0  0  0  0  0  0  0  0  0  0
  -34.8735  152.0025    4.5992 H   0  0  0  0  0  0  0  0  0  0  0  0
  -37.3475  151.7572    6.3611 H   0  0  0  0  0  0  0  0  0  0  0  0
  -37.1744  151.2178    4.6281 H   0  0  0  0  0  0  0  0  0  0  0  0
  -37.0290  149.4071    7.8133 H   0  0  0  0  0  0  0  0  0  0  0  0
  -38.1607  149.6859    6.4465 H   0  0  0  0  0  0  0  0  0  0  0  0
  -37.0906  148.2432    6.4465 H   0  0  0  0  0  0  0  0  0  0  0  0
  -34.9178  149.4478    7.6243 H   0  0  0  0  0  0  0  0  0  0  0  0
  -34.0599  150.1151    6.1522 H   0  0  0  0  0  0  0  0  0  0  0  0
  -35.6371  151.7490    8.1851 H   0  0  0  0  0  0  0  0  0  0  0  0
  -33.8234  151.6040    8.0671 H   0  0  0  0  0  0  0  0  0  0  0  0
  -35.9954  157.3646    4.0204 H   0  0  0  0  0  0  0  0  0  0  0  0
  -37.9354  159.6778    0.8553 H   0  0  0  0  0  0  0  0  0  0  0  0
  -38.8207  164.8337   -1.3124 H   0  0  0  0  0  0  0  0  0  0  0  0
  -37.9118  164.7423   -6.2487 H   0  0  0  0  0  0  0  0  0  0  0  0
  -38.0652  162.5950   -7.4542 H   0  0  0  0  0  0  0  0  0  0  0  0
  -38.6861  160.5024   -6.1308 H   0  0  0  0  0  0  0  0  0  0  0  0
  1  2  1  0
  2  3  1  0
  3  4  2  0
  4  5  1  0
  5  6  1  0
  6  7  2  0
  6  8  1  0
  8  9  1  0
  9 10  1  0
 10 11  2  0
 11 12  1  0
 12 13  1  0
 13 14  1  0
 14 15  1  0
 15 16  1  0
 16 17  1  0
 17 18  1  0
 17 19  1  0
 19 20  1  0
 12 21  2  0
 21 22  1  0
 22 23  1  0
 22 24  1  0
 22 25  1  0
 21 26  1  0
  5 27  2  0
 27 28  1  0
 28 29  1  0
 29 30  3  0
 30 31  1  0
 31 32  2  0
 32 33  1  0
 33 34  2  0
 34 35  1  0
 35 36  2  0
 36 37  1  0
 37 38  2  0
 38 39  1  0
 28  2  2  0
 39 31  1  0
 26  9  2  0
 39 34  1  0
 20 14  1  0
  1 40  1  0
  1 41  1  0
  1 42  1  0
  3 43  1  0
  4 44  1  0
  8 45  1  0
 10 46  1  0
 11 47  1  0
 13 48  1  0
 13 49  1  0
 15 50  1  0
 15 51  1  0
 16 52  1  0
 16 53  1  0
 18 54  1  0
 18 55  1  0
 18 56  1  0
 19 57  1  0
 19 58  1  0
 20 59  1  0
 20 60  1  0
 26 61  1  0
 27 62  1  0
 32 63  1  0
 35 64  1  0
 36 65  1  0
 37 66  1  0
M  END
>  <meeko>  (2) 
{"is_sidechain": false}

>  <vina_affinity_kcal_mol>  (2) 
-12.65

>  <pose_rank>  (2) 
2

$$$$

     RDKit          3D

 66 70  0  0  0  0  0  0  0  0999 V2000
  -41.6120  157.9320    3.2090 C   0  0  0  0  0  0  0  0  0  0  0  0
  -41.0530  158.7870    2.1030 C   0  0  0  0  0  0  0  0  0  0  0  0
  -41.9260  159.3810    1.1770 C   0  0  0  0  0  0  0  0  0  0  0  0
  -41.4340  160.1820    0.1440 C   0  0  0  0  0  0  0  0  0  0  0  0
  -40.0560  160.3930    0.0210 C   0  0  0  0  0  0  0  0  0  0  0  0
  -39.4890  161.2400   -1.0660 C   0  0  0  0  0  0  0  0  0  0  0  0
  -38.9240  162.2800   -0.7550 O   0  0  0  0  0  0  0  0  0  0  0  0
  -39.6360  160.7220   -2.3410 N   0  0  0  0  0  0  0  0  0  0  0  0
  -39.2340  161.3160   -3.5560 C   0  0  0  0  0  0  0  0  0  0  0  0
  -39.1220  160.6290   -4.7600 C   0  0  0  0  0  0  0  0  0  0  0  0
  -38.7190  161.2960   -5.9210 C   0  0  0  0  0  0  0  0  0  0  0  0
  -38.4120  162.6670   -5.9070 C   0  0  0  0  0  0  0  0  0  0  0  0
  -37.9970  163.3330   -7.2060 C   0  0  0  0  0  0  0  0  0  0  0  0
  -37.8190  162.3710   -8.2950 N   0  0  0  0  0  0  0  0  0  0  0  0
  -36.4010  162.1000   -8.6190 C   0  0  0  0  0  0  0  0  0  0  0  0
  -35.8950  162.8160   -9.8910 C   0  0  0  0  0  0  0  0  0  0  0  0
  -36.6500  162.4440  -11.1040 N   0  0  0  0  0  0  0  0  0  0  0  0
  -36.5220  163.4730  -12.1310 C   0  0  0  0  0  0  0  0  0  0  0  0
  -38.0610  162.1380  -10.7930 C   0  0  0  0  0  0  0  0  0  0  0  0
  -38.5720  162.7970   -9.4930 C   0  0  0  0  0  0  0  0  0  0  0  0
  -38.4940  163.3710   -4.6850 C   0  0  0  0  0  0  0  0  0  0  0  0
  -38.1730  164.8480   -4.5650 C   0  0  0  0  0  0  0  0  0  0  0  0
  -38.4830  165.5820   -5.6690 F   0  0  0  0  0  0  0  0  0  0  0  0
  -36.8330  165.0630   -4.3780 F   0  0  0  0  0  0  0  0  0  0  0  0
  -38.7740  165.4510   -3.5030 F   0  0  0  0  0  0  0  0  0  0  0  0
  -38.9180  162.6790   -3.5280 C   0  0  0  0  0  0  0  0  0  0  0  0
  -39.1780  159.8250    0.9490 C   0  0  0  0  0  0  0  0  0  0  0  0
  -39.6690  159.0210    1.9840 C   0  0  0  0  0  0  0  0  0  0  0  0
  -38.7370  158.4490    2.9100 C   0  0  0  0  0  0  0  0  0  0  0  0
  -37.9700  157.9610    3.6940 C   0  0  0  0  0  0  0  0  0  0  0  0
  -37.0720  157.3660    4.6180 C   0  0  0  0  0  0  0  0  0  0  0  0
  -36.1270  157.9770    5.4110 C   0  0  0  0  0  0  0  0  0  0  0  0
  -35.4460  157.0610    6.1760 N   0  0  0  0  0  0  0  0  0  0  0  0
  -35.9720  155.8960    5.8570 C   0  0  0  0  0  0  0  0  0  0  0  0
  -35.6800  154.5920    6.3190 C   0  0  0  0  0  0  0  0  0  0  0  0
  -36.3690  153.5540    5.8300 C   0  0  0  0  0  0  0  0  0  0  0  0
  -37.4100  153.8490    4.8160 C   0  0  0  0  0  0  0  0  0  0  0  0
  -37.7240  155.0170    4.3530 N   0  0  0  0  0  0  0  0  0  0  0  0
  -36.9740  156.0250    4.9040 N   0  0  0  0  0  0  0  0  0  0  0  0
  -41.3312  158.3614    4.1820 H   0  0  0  0  0  0  0  0  0  0  0  0
  -42.7083  157.8964    3.1265 H   0  0  0  0  0  0  0  0  0  0  0  0
  -41.2049  156.9135    3.1265 H   0  0  0  0  0  0  0  0  0  0  0  0
  -43.0095  159.2135    1.2663 H   0  0  0  0  0  0  0  0  0  0  0  0
  -42.1285  160.6462   -0.5717 H   0  0  0  0  0  0  0  0  0  0  0  0
  -40.0120  159.7860   -2.4130 H   0  0  0  0  0  0  0  0  0  0  0  0
  -39.3519  159.5540   -4.7992 H   0  0  0  0  0  0  0  0  0  0  0  0
  -38.6407  160.7359   -6.8645 H   0  0  0  0  0  0  0  0  0  0  0  0
  -38.7740  164.0554   -7.4964 H   0  0  0  0  0  0  0  0  0  0  0  0
  -37.0297  163.8280   -7.0347 H   0  0  0  0  0  0  0  0  0  0  0  0
  -35.7840  162.4284   -7.7696 H   0  0  0  0  0  0  0  0  0  0  0  0
  -36.3210  161.0198   -8.8108 H   0  0  0  0  0  0  0  0  0  0  0  0
  -35.9861  163.9019   -9.7412 H   0  0  0  0  0  0  0  0  0  0  0  0
  -34.8506  162.5080  -10.0473 H   0  0  0  0  0  0  0  0  0  0  0  0
  -36.3998  164.4557  -11.6522 H   0  0  0  0  0  0  0  0  0  0  0  0
  -35.6436  163.2586  -12.7575 H   0  0  0  0  0  0  0  0  0  0  0  0
  -37.4262  163.4803  -12.7575 H   0  0  0  0  0  0  0  0  0  0  0  0
  -38.6841  162.4905  -11.6282 H   0  0  0  0  0  0  0  0  0  0  0  0
  -38.1272  161.0498  -10.6469 H   0  0  0  0  0  0  0  0  0  0  0  0
  -38.4813  163.8886   -9.5942 H   0  0  0  0  0  0  0  0  0  0  0  0
  -39.6170  162.4829   -9.3537 H   0  0  0  0  0  0  0  0  0  0  0  0
  -39.0020  163.2275   -2.5782 H   0  0  0  0  0  0  0  0  0  0  0  0
  -38.0970  160.0108    0.8653 H   0  0  0  0  0  0  0  0  0  0  0  0
  -35.9407  159.0610    5.4298 H   0  0  0  0  0  0  0  0  0  0  0  0
  -34.8947  154.4323    7.0725 H   0  0  0  0  0  0  0  0  0  0  0  0
  -36.1714  152.5254    6.1661 H   0  0  0  0  0  0  0  0  0  0  0  0
  -37.9711  152.9908    4.4176 H   0  0  0  0  0  0  0  0  0  0  0  0
  1  2  1  0
  2  3  1  0
  3  4  2  0
  4  5  1  0
  5  6  1  0
  6  7  2  0
  6  8  1  0
  8  9  1  0
  9 10  1  0
 10 11  2  0
 11 12  1  0
 12 13  1  0
 13 14  1  0
 14 15  1  0
 15 16  1  0
 16 17  1  0
 17 18  1  0
 17 19  1  0
 19 20  1  0
 12 21  2  0
 21 22  1  0
 22 23  1  0
 22 24  1  0
 22 25  1  0
 21 26  1  0
  5 27  2  0
 27 28  1  0
 28 29  1  0
 29 30  3  0
 30 31  1  0
 31 32  2  0
 32 33  1  0
 33 34  2  0
 34 35  1  0
 35 36  2  0
 36 37  1  0
 37 38  2  0
 38 39  1  0
 28  2  2  0
 39 31  1  0
 26  9  2  0
 39 34  1  0
 20 14  1  0
  1 40  1  0
  1 41  1  0
  1 42  1  0
  3 43  1  0
  4 44  1  0
  8 45  1  0
 10 46  1  0
 11 47  1  0
 13 48  1  0
 13 49  1  0
 15 50  1  0
 15 51  1  0
 16 52  1  0
 16 53  1  0
 18 54  1  0
 18 55  1  0
 18 56  1  0
 19 57  1  0
 19 58  1  0
 20 59  1  0
 20 60  1  0
 26 61  1  0
 27 62  1  0
 32 63  1  0
 35 64  1  0
 36 65  1  0
 37 66  1  0
M  END
>  <meeko>  (3) 
{"is_sidechain": false}

>  <vina_affinity_kcal_mol>  (3) 
-12.489

>  <pose_rank>  (3) 
3

$$$$

     RDKit          3D

 66 70  0  0  0  0  0  0  0  0999 V2000
  -42.3930  160.8790    0.2110 C   0  0  0  0  0  0  0  0  0  0  0  0
  -41.2930  160.0710    0.8460 C   0  0  0  0  0  0  0  0  0  0  0  0
  -41.6110  159.1140    1.8240 C   0  0  0  0  0  0  0  0  0  0  0  0
  -40.6100  158.3490    2.4260 C   0  0  0  0  0  0  0  0  0  0  0  0
  -39.2720  158.5380    2.0610 C   0  0  0  0  0  0  0  0  0  0  0  0
  -38.1730  157.7430    2.6780 C   0  0  0  0  0  0  0  0  0  0  0  0
  -37.0230  157.9780    2.3320 O   0  0  0  0  0  0  0  0  0  0  0  0
  -38.5860  156.8260    3.6300 N   0  0  0  0  0  0  0  0  0  0  0  0
  -37.7790  155.9180    4.3470 C   0  0  0  0  0  0  0  0  0  0  0  0
  -37.8690  154.5350    4.2320 C   0  0  0  0  0  0  0  0  0  0  0  0
  -37.0270  153.7050    4.9780 C   0  0  0  0  0  0  0  0  0  0  0  0
  -36.0750  154.2380    5.8630 C   0  0  0  0  0  0  0  0  0  0  0  0
  -35.1800  153.2810    6.6310 C   0  0  0  0  0  0  0  0  0  0  0  0
  -35.9160  152.1350    7.1660 N   0  0  0  0  0  0  0  0  0  0  0  0
  -35.3230  151.5730    8.3980 C   0  0  0  0  0  0  0  0  0  0  0  0
  -34.5230  150.2700    8.1770 C   0  0  0  0  0  0  0  0  0  0  0  0
  -35.3380  149.1800    7.6060 N   0  0  0  0  0  0  0  0  0  0  0  0
  -34.4940  148.1940    6.9390 C   0  0  0  0  0  0  0  0  0  0  0  0
  -36.3950  149.7020    6.7150 C   0  0  0  0  0  0  0  0  0  0  0  0
  -36.0870  151.0960    6.1280 C   0  0  0  0  0  0  0  0  0  0  0  0
  -35.9900  155.6400    6.0100 C   0  0  0  0  0  0  0  0  0  0  0  0
  -35.0030  156.3100    6.9470 C   0  0  0  0  0  0  0  0  0  0  0  0
  -34.9080  155.7250    8.1740 F   0  0  0  0  0  0  0  0  0  0  0  0
  -35.3560  157.6060    7.2150 F   0  0  0  0  0  0  0  0  0  0  0  0
  -33.7420  156.3890    6.4430 F   0  0  0  0  0  0  0  0  0  0  0  0
  -36.8410  156.4580    5.2350 C   0  0  0  0  0  0  0  0  0  0  0  0
  -38.9450  159.4730    1.0740 C   0  0  0  0  0  0  0  0  0  0  0  0
  -39.9470  160.2410    0.4700 C   0  0  0  0  0  0  0  0  0  0  0  0
  -39.5700  161.1950   -0.5310 C   0  0  0  0  0  0  0  0  0  0  0  0
  -39.2730  161.9990   -1.3710 C   0  0  0  0  0  0  0  0  0  0  0  0
  -38.9200  162.9350   -2.3780 C   0  0  0  0  0  0  0  0  0  0  0  0
  -38.7360  164.2940   -2.2600 C   0  0  0  0  0  0  0  0  0  0  0  0
  -38.3990  164.8610   -3.4650 N   0  0  0  0  0  0  0  0  0  0  0  0
  -38.3740  163.8570   -4.3170 C   0  0  0  0  0  0  0  0  0  0  0  0
  -38.0910  163.8250   -5.7010 C   0  0  0  0  0  0  0  0  0  0  0  0
  -38.1330  162.6570   -6.3530 C   0  0  0  0  0  0  0  0  0  0  0  0
  -38.4820  161.4530   -5.5620 C   0  0  0  0  0  0  0  0  0  0  0  0
  -38.7520  161.4150   -4.2950 N   0  0  0  0  0  0  0  0  0  0  0  0
  -38.6870  162.6510   -3.7030 N   0  0  0  0  0  0  0  0  0  0  0  0
  -43.0135  161.3348    0.9966 H   0  0  0  0  0  0  0  0  0  0  0  0
  -41.9529  161.6702   -0.4138 H   0  0  0  0  0  0  0  0  0  0  0  0
  -43.0163  160.2225   -0.4138 H   0  0  0  0  0  0  0  0  0  0  0  0
  -42.6603  158.9656    2.1188 H   0  0  0  0  0  0  0  0  0  0  0  0
  -40.8726  157.5986    3.1863 H   0  0  0  0  0  0  0  0  0  0  0  0
  -39.5610  156.8500    3.8940 H   0  0  0  0  0  0  0  0  0  0  0  0
  -38.6081  154.0909    3.5490 H   0  0  0  0  0  0  0  0  0  0  0  0
  -37.1115  152.6136    4.8700 H   0  0  0  0  0  0  0  0  0  0  0  0
  -34.3951  152.9119    5.9545 H   0  0  0  0  0  0  0  0  0  0  0  0
  -34.7531  153.8318    7.4821 H   0  0  0  0  0  0  0  0  0  0  0  0
  -34.6458  152.3249    8.8292 H   0  0  0  0  0  0  0  0  0  0  0  0
  -36.1600  151.3212    9.0659 H   0  0  0  0  0  0  0  0  0  0  0  0
  -33.6911  150.4823    7.4893 H   0  0  0  0  0  0  0  0  0  0  0  0
  -34.1674  149.9324    9.1617 H   0  0  0  0  0  0  0  0  0  0  0  0
  -33.9737  147.5861    7.6938 H   0  0  0  0  0  0  0  0  0  0  0  0
  -35.1184  147.5423    6.3102 H   0  0  0  0  0  0  0  0  0  0  0  0
  -33.7537  148.7104    6.3102 H   0  0  0  0  0  0  0  0  0  0  0  0
  -36.5248  148.9962    5.8813 H   0  0  0  0  0  0  0  0  0  0  0  0
  -37.3040  149.8067    7.3256 H   0  0  0  0  0  0  0  0  0  0  0  0
  -35.1594  151.0317    5.5402 H   0  0  0  0  0  0  0  0  0  0  0  0
  -36.9468  151.3891    5.5076 H   0  0  0  0  0  0  0  0  0  0  0  0
  -36.7647  157.5511    5.3318 H   0  0  0  0  0  0  0  0  0  0  0  0
  -37.8959  159.6054    0.7711 H   0  0  0  0  0  0  0  0  0  0  0  0
  -38.8450  164.8549   -1.3200 H   0  0  0  0  0  0  0  0  0  0  0  0
  -37.8385  164.7515   -6.2375 H   0  0  0  0  0  0  0  0  0  0  0  0
  -37.9177  162.5932   -7.4298 H   0  0  0  0  0  0  0  0  0  0  0  0
  -38.5151  160.4966   -6.1043 H   0  0  0  0  0  0  0  0  0  0  0  0
  1  2  1  0
  2  3  1  0
  3  4  2  0
  4  5  1  0
  5  6  1  0
  6  7  2  0
  6  8  1  0
  8  9  1  0
  9 10  1  0
 10 11  2  0
 11 12  1  0
 12 13  1  0
 13 14  1  0
 14 15  1  0
 15 16  1  0
 16 17  1  0
 17 18  1  0
 17 19  1  0
 19 20  1  0
 12 21  2  0
 21 22  1  0
 22 23  1  0
 22 24  1  0
 22 25  1  0
 21 26  1  0
  5 27  2  0
 27 28  1  0
 28 29  1  0
 29 30  3  0
 30 31  1  0
 31 32  2  0
 32 33  1  0
 33 34  2  0
 34 35  1  0
 35 36  2  0
 36 37  1  0
 37 38  2  0
 38 39  1  0
 28  2  2  0
 39 31  1  0
 26  9  2  0
 39 34  1  0
 20 14  1  0
  1 40  1  0
  1 41  1  0
  1 42  1  0
  3 43  1  0
  4 44  1  0
  8 45  1  0
 10 46  1  0
 11 47  1  0
 13 48  1  0
 13 49  1  0
 15 50  1  0
 15 51  1  0
 16 52  1  0
 16 53  1  0
 18 54  1  0
 18 55  1  0
 18 56  1  0
 19 57  1  0
 19 58  1  0
 20 59  1  0
 20 60  1  0
 26 61  1  0
 27 62  1  0
 32 63  1  0
 35 64  1  0
 36 65  1  0
 37 66  1  0
M  END
>  <meeko>  (4) 
{"is_sidechain": false}

>  <vina_affinity_kcal_mol>  (4) 
-12.385

>  <pose_rank>  (4) 
4

$$$$

     RDKit          3D

 66 70  0  0  0  0  0  0  0  0999 V2000
  -41.6560  158.4870    2.6980 C   0  0  0  0  0  0  0  0  0  0  0  0
  -40.9130  159.0270    1.5050 C   0  0  0  0  0  0  0  0  0  0  0  0
  -41.5900  159.8290    0.5720 C   0  0  0  0  0  0  0  0  0  0  0  0
  -40.9240  160.3460   -0.5410 C   0  0  0  0  0  0  0  0  0  0  0  0
  -39.5690  160.0590   -0.7390 C   0  0  0  0  0  0  0  0  0  0  0  0
  -38.8200  160.5900   -1.9130 C   0  0  0  0  0  0  0  0  0  0  0  0
  -37.8430  159.9680   -2.3070 O   0  0  0  0  0  0  0  0  0  0  0  0
  -39.3520  161.7430   -2.4650 N   0  0  0  0  0  0  0  0  0  0  0  0
  -38.8400  162.4840   -3.5510 C   0  0  0  0  0  0  0  0  0  0  0  0
  -38.9290  163.8670   -3.6620 C   0  0  0  0  0  0  0  0  0  0  0  0
  -38.3910  164.5260   -4.7710 C   0  0  0  0  0  0  0  0  0  0  0  0
  -37.7530  163.8160   -5.8020 C   0  0  0  0  0  0  0  0  0  0  0  0
  -37.1750  164.5940   -6.9710 C   0  0  0  0  0  0  0  0  0  0  0  0
  -38.1820  164.9100   -7.9840 N   0  0  0  0  0  0  0  0  0  0  0  0
  -38.4210  163.8110   -8.9440 C   0  0  0  0  0  0  0  0  0  0  0  0
  -37.7520  164.0170  -10.3220 C   0  0  0  0  0  0  0  0  0  0  0  0
  -38.2080  165.2410  -11.0100 N   0  0  0  0  0  0  0  0  0  0  0  0
  -37.2270  165.6780  -11.9980 C   0  0  0  0  0  0  0  0  0  0  0  0
  -38.5460  166.3100  -10.0490 C   0  0  0  0  0  0  0  0  0  0  0  0
  -37.8420  166.1690   -8.6820 C   0  0  0  0  0  0  0  0  0  0  0  0
  -37.6790  162.4090   -5.7170 C   0  0  0  0  0  0  0  0  0  0  0  0
  -37.0210  161.5540   -6.7830 C   0  0  0  0  0  0  0  0  0  0  0  0
  -37.8910  160.8080   -7.5200 F   0  0  0  0  0  0  0  0  0  0  0  0
  -36.1610  160.6360   -6.2400 F   0  0  0  0  0  0  0  0  0  0  0  0
  -36.2630  162.2660   -7.6600 F   0  0  0  0  0  0  0  0  0  0  0  0
  -38.2170  161.7670   -4.5790 C   0  0  0  0  0  0  0  0  0  0  0  0
  -38.8780  159.2800    0.1950 C   0  0  0  0  0  0  0  0  0  0  0  0
  -39.5440  158.7600    1.3100 C   0  0  0  0  0  0  0  0  0  0  0  0
  -38.8040  157.9580    2.2390 C   0  0  0  0  0  0  0  0  0  0  0  0
  -38.2000  157.2830    3.0270 C   0  0  0  0  0  0  0  0  0  0  0  0
  -37.4700  156.4990    3.9570 C   0  0  0  0  0  0  0  0  0  0  0  0
  -37.8460  155.3250    4.5720 C   0  0  0  0  0  0  0  0  0  0  0  0
  -36.8630  154.8630    5.4140 N   0  0  0  0  0  0  0  0  0  0  0  0
  -35.8900  155.7450    5.3150 C   0  0  0  0  0  0  0  0  0  0  0  0
  -34.6260  155.8010    5.9440 C   0  0  0  0  0  0  0  0  0  0  0  0
  -33.8020  156.8200    5.6710 C   0  0  0  0  0  0  0  0  0  0  0  0
  -34.2830  157.8410    4.7090 C   0  0  0  0  0  0  0  0  0  0  0  0
  -35.4270  157.8460    4.1010 N   0  0  0  0  0  0  0  0  0  0  0  0
  -36.2100  156.7710    4.4340 N   0  0  0  0  0  0  0  0  0  0  0  0
  -41.1722  158.8386    3.6212 H   0  0  0  0  0  0  0  0  0  0  0  0
  -42.6973  158.8405    2.6722 H   0  0  0  0  0  0  0  0  0  0  0  0
  -41.6413  157.3874    2.6722 H   0  0  0  0  0  0  0  0  0  0  0  0
  -42.6569  160.0524    0.7196 H   0  0  0  0  0  0  0  0  0  0  0  0
  -41.4640  160.9782   -1.2613 H   0  0  0  0  0  0  0  0  0  0  0  0
  -40.2410  162.0560   -2.1000 H   0  0  0  0  0  0  0  0  0  0  0  0
  -39.4267  164.4471   -2.8709 H   0  0  0  0  0  0  0  0  0  0  0  0
  -38.4685  165.6212   -4.8379 H   0  0  0  0  0  0  0  0  0  0  0  0
  -36.7476  165.5343   -6.5926 H   0  0  0  0  0  0  0  0  0  0  0  0
  -36.4081  163.9645   -7.4459 H   0  0  0  0  0  0  0  0  0  0  0  0
  -38.0309  162.8801   -8.5068 H   0  0  0  0  0  0  0  0  0  0  0  0
  -39.5061  163.7765   -9.1213 H   0  0  0  0  0  0  0  0  0  0  0  0
  -36.6636  164.0820  -10.1765 H   0  0  0  0  0  0  0  0  0  0  0  0
  -38.0327  163.1616  -10.9540 H   0  0  0  0  0  0  0  0  0  0  0  0
  -36.3391  166.0735  -11.4830 H   0  0  0  0  0  0  0  0  0  0  0  0
  -36.9357  164.8245  -12.6279 H   0  0  0  0  0  0  0  0  0  0  0  0
  -37.6667  166.4654  -12.6279 H   0  0  0  0  0  0  0  0  0  0  0  0
  -38.2568  167.2756  -10.4894 H   0  0  0  0  0  0  0  0  0  0  0  0
  -39.6273  166.2386   -9.8598 H   0  0  0  0  0  0  0  0  0  0  0  0
  -36.7543  166.1977   -8.8433 H   0  0  0  0  0  0  0  0  0  0  0  0
  -38.1851  166.9998   -8.0479 H   0  0  0  0  0  0  0  0  0  0  0  0
  -38.1441  160.6724   -4.4987 H   0  0  0  0  0  0  0  0  0  0  0  0
  -37.8067  159.0755    0.0522 H   0  0  0  0  0  0  0  0  0  0  0  0
  -38.8104  154.8214    4.4097 H   0  0  0  0  0  0  0  0  0  0  0  0
  -34.3221  155.0150    6.6510 H   0  0  0  0  0  0  0  0  0  0  0  0
  -32.8101  156.8968    6.1403 H   0  0  0  0  0  0  0  0  0  0  0  0
  -33.6014  158.6762    4.4902 H   0  0  0  0  0  0  0  0  0  0  0  0
  1  2  1  0
  2  3  1  0
  3  4  2  0
  4  5  1  0
  5  6  1  0
  6  7  2  0
  6  8  1  0
  8  9  1  0
  9 10  1  0
 10 11  2  0
 11 12  1  0
 12 13  1  0
 13 14  1  0
 14 15  1  0
 15 16  1  0
 16 17  1  0
 17 18  1  0
 17 19  1  0
 19 20  1  0
 12 21  2  0
 21 22  1  0
 22 23  1  0
 22 24  1  0
 22 25  1  0
 21 26  1  0
  5 27  2  0
 27 28  1  0
 28 29  1  0
 29 30  3  0
 30 31  1  0
 31 32  2  0
 32 33  1  0
 33 34  2  0
 34 35  1  0
 35 36  2  0
 36 37  1  0
 37 38  2  0
 38 39  1  0
 28  2  2  0
 39 31  1  0
 26  9  2  0
 39 34  1  0
 20 14  1  0
  1 40  1  0
  1 41  1  0
  1 42  1  0
  3 43  1  0
  4 44  1  0
  8 45  1  0
 10 46  1  0
 11 47  1  0
 13 48  1  0
 13 49  1  0
 15 50  1  0
 15 51  1  0
 16 52  1  0
 16 53  1  0
 18 54  1  0
 18 55  1  0
 18 56  1  0
 19 57  1  0
 19 58  1  0
 20 59  1  0
 20 60  1  0
 26 61  1  0
 27 62  1  0
 32 63  1  0
 35 64  1  0
 36 65  1  0
 37 66  1  0
M  END
>  <meeko>  (5) 
{"is_sidechain": false}

>  <vina_affinity_kcal_mol>  (5) 
-11.62

>  <pose_rank>  (5) 
5

$$$$

     RDKit          3D

 66 70  0  0  0  0  0  0  0  0999 V2000
  -38.4910  165.0340   -6.2940 C   0  0  0  0  0  0  0  0  0  0  0  0
  -38.6110  163.8800   -5.3350 C   0  0  0  0  0  0  0  0  0  0  0  0
  -38.9620  164.1250   -3.9970 C   0  0  0  0  0  0  0  0  0  0  0  0
  -39.0840  163.0720   -3.0870 C   0  0  0  0  0  0  0  0  0  0  0  0
  -38.8480  161.7580   -3.5050 C   0  0  0  0  0  0  0  0  0  0  0  0
  -38.9680  160.6050   -2.5680 C   0  0  0  0  0  0  0  0  0  0  0  0
  -39.2820  159.5150   -3.0270 O   0  0  0  0  0  0  0  0  0  0  0  0
  -38.6660  160.8980   -1.2490 N   0  0  0  0  0  0  0  0  0  0  0  0
  -38.7270  160.0220   -0.1450 C   0  0  0  0  0  0  0  0  0  0  0  0
  -37.6500  159.2740    0.3170 C   0  0  0  0  0  0  0  0  0  0  0  0
  -37.7940  158.4300    1.4230 C   0  0  0  0  0  0  0  0  0  0  0  0
  -39.0240  158.3100    2.0930 C   0  0  0  0  0  0  0  0  0  0  0  0
  -39.1080  157.3900    3.2970 C   0  0  0  0  0  0  0  0  0  0  0  0
  -37.8020  156.8580    3.6870 N   0  0  0  0  0  0  0  0  0  0  0  0
  -37.8510  155.4610    4.1680 C   0  0  0  0  0  0  0  0  0  0  0  0
  -37.7660  155.3170    5.7050 C   0  0  0  0  0  0  0  0  0  0  0  0
  -36.5240  155.8810    6.2700 N   0  0  0  0  0  0  0  0  0  0  0  0
  -36.6980  156.2050    7.6830 C   0  0  0  0  0  0  0  0  0  0  0  0
  -36.0460  157.0380    5.4870 C   0  0  0  0  0  0  0  0  0  0  0  0
  -37.1540  157.7450    4.6770 C   0  0  0  0  0  0  0  0  0  0  0  0
  -40.1340  159.0430    1.6180 C   0  0  0  0  0  0  0  0  0  0  0  0
  -41.5030  158.9720    2.2650 C   0  0  0  0  0  0  0  0  0  0  0  0
  -41.9600  157.7060    2.4760 F   0  0  0  0  0  0  0  0  0  0  0  0
  -42.4660  159.5550    1.4830 F   0  0  0  0  0  0  0  0  0  0  0  0
  -41.5770  159.6260    3.4550 F   0  0  0  0  0  0  0  0  0  0  0  0
  -39.9590  159.8990    0.5080 C   0  0  0  0  0  0  0  0  0  0  0  0
  -38.5200  161.4990   -4.8400 C   0  0  0  0  0  0  0  0  0  0  0  0
  -38.3960  162.5530   -5.7530 C   0  0  0  0  0  0  0  0  0  0  0  0
  -38.0480  162.2480   -7.1090 C   0  0  0  0  0  0  0  0  0  0  0  0
  -37.7560  162.0120   -8.2490 C   0  0  0  0  0  0  0  0  0  0  0  0
  -37.4070  161.7130   -9.5910 C   0  0  0  0  0  0  0  0  0  0  0  0
  -37.4340  162.5430  -10.6900 C   0  0  0  0  0  0  0  0  0  0  0  0
  -37.0210  161.8860  -11.8250 N   0  0  0  0  0  0  0  0  0  0  0  0
  -36.7410  160.6630  -11.4250 C   0  0  0  0  0  0  0  0  0  0  0  0
  -36.2720  159.5400  -12.1430 C   0  0  0  0  0  0  0  0  0  0  0  0
  -36.0610  158.3880  -11.4950 C   0  0  0  0  0  0  0  0  0  0  0  0
  -36.3400  158.3690  -10.0390 C   0  0  0  0  0  0  0  0  0  0  0  0
  -36.7690  159.3610   -9.3250 N   0  0  0  0  0  0  0  0  0  0  0  0
  -36.9600  160.5010  -10.0630 N   0  0  0  0  0  0  0  0  0  0  0  0
  -38.3934  165.9723   -5.7282 H   0  0  0  0  0  0  0  0  0  0  0  0
  -37.6026  164.8936   -6.9273 H   0  0  0  0  0  0  0  0  0  0  0  0
  -39.3893  165.0794   -6.9273 H   0  0  0  0  0  0  0  0  0  0  0  0
  -39.1427  165.1571   -3.6622 H   0  0  0  0  0  0  0  0  0  0  0  0
  -39.3652  163.2758   -2.0433 H   0  0  0  0  0  0  0  0  0  0  0  0
  -38.2960  161.8190   -1.0590 H   0  0  0  0  0  0  0  0  0  0  0  0
  -36.6771  159.3465   -0.1912 H   0  0  0  0  0  0  0  0  0  0  0  0
  -36.9287  157.8493    1.7751 H   0  0  0  0  0  0  0  0  0  0  0  0
  -39.5264  157.9541    4.1436 H   0  0  0  0  0  0  0  0  0  0  0  0
  -39.7480  156.5383    3.0232 H   0  0  0  0  0  0  0  0  0  0  0  0
  -38.7976  155.0132    3.8313 H   0  0  0  0  0  0  0  0  0  0  0  0
  -36.9680  154.9526    3.7534 H   0  0  0  0  0  0  0  0  0  0  0  0
  -38.6239  155.8391    6.1538 H   0  0  0  0  0  0  0  0  0  0  0  0
  -37.7732  154.2414    5.9354 H   0  0  0  0  0  0  0  0  0  0  0  0
  -36.2668  155.4022    8.2991 H   0  0  0  0  0  0  0  0  0  0  0  0
  -36.1879  157.1534    7.9072 H   0  0  0  0  0  0  0  0  0  0  0  0
  -37.7704  156.3035    7.9072 H   0  0  0  0  0  0  0  0  0  0  0  0
  -35.6051  157.7681    6.1816 H   0  0  0  0  0  0  0  0  0  0  0  0
  -35.3156  156.6525    4.7605 H   0  0  0  0  0  0  0  0  0  0  0  0
  -37.9211  158.1092    5.3762 H   0  0  0  0  0  0  0  0  0  0  0  0
  -36.6808  158.5679    4.1212 H   0  0  0  0  0  0  0  0  0  0  0  0
  -40.8160  160.4861    0.1462 H   0  0  0  0  0  0  0  0  0  0  0  0
  -38.3589  160.4633   -5.1736 H   0  0  0  0  0  0  0  0  0  0  0  0
  -37.7463  163.5974  -10.6630 H   0  0  0  0  0  0  0  0  0  0  0  0
  -36.0821  159.6118  -13.2241 H   0  0  0  0  0  0  0  0  0  0  0  0
  -35.6960  157.4932  -12.0205 H   0  0  0  0  0  0  0  0  0  0  0  0
  -36.1655  157.4187   -9.5132 H   0  0  0  0  0  0  0  0  0  0  0  0
  1  2  1  0
  2  3  1  0
  3  4  2  0
  4  5  1  0
  5  6  1  0
  6  7  2  0
  6  8  1  0
  8  9  1  0
  9 10  1  0
 10 11  2  0
 11 12  1  0
 12 13  1  0
 13 14  1  0
 14 15  1  0
 15 16  1  0
 16 17  1  0
 17 18  1  0
 17 19  1  0
 19 20  1  0
 12 21  2  0
 21 22  1  0
 22 23  1  0
 22 24  1  0
 22 25  1  0
 21 26  1  0
  5 27  2  0
 27 28  1  0
 28 29  1  0
 29 30  3  0
 30 31  1  0
 31 32  2  0
 32 33  1  0
 33 34  2  0
 34 35  1  0
 35 36  2  0
 36 37  1  0
 37 38  2  0
 38 39  1  0
 28  2  2  0
 39 31  1  0
 26  9  2  0
 39 34  1  0
 20 14  1  0
  1 40  1  0
  1 41  1  0
  1 42  1  0
  3 43  1  0
  4 44  1  0
  8 45  1  0
 10 46  1  0
 11 47  1  0
 13 48  1  0
 13 49  1  0
 15 50  1  0
 15 51  1  0
 16 52  1  0
 16 53  1  0
 18 54  1  0
 18 55  1  0
 18 56  1  0
 19 57  1  0
 19 58  1  0
 20 59  1  0
 20 60  1  0
 26 61  1  0
 27 62  1  0
 32 63  1  0
 35 64  1  0
 36 65  1  0
 37 66  1  0
M  END
>  <meeko>  (6) 
{"is_sidechain": false}

>  <vina_affinity_kcal_mol>  (6) 
-11.075

>  <pose_rank>  (6) 
6

$$$$

     RDKit          3D

 66 70  0  0  0  0  0  0  0  0999 V2000
  -42.5590  161.1330   -0.1580 C   0  0  0  0  0  0  0  0  0  0  0  0
  -41.5090  160.2970    0.5210 C   0  0  0  0  0  0  0  0  0  0  0  0
  -41.8930  159.3490    1.4840 C   0  0  0  0  0  0  0  0  0  0  0  0
  -40.9390  158.5580    2.1270 C   0  0  0  0  0  0  0  0  0  0  0  0
  -39.5830  158.7110    1.8190 C   0  0  0  0  0  0  0  0  0  0  0  0
  -38.5330  157.8870    2.4820 C   0  0  0  0  0  0  0  0  0  0  0  0
  -38.2250  156.8190    1.9690 O   0  0  0  0  0  0  0  0  0  0  0  0
  -37.9800  158.4560    3.6160 N   0  0  0  0  0  0  0  0  0  0  0  0
  -37.0000  157.8950    4.4620 C   0  0  0  0  0  0  0  0  0  0  0  0
  -35.6500  158.2270    4.4190 C   0  0  0  0  0  0  0  0  0  0  0  0
  -34.7430  157.6250    5.2970 C   0  0  0  0  0  0  0  0  0  0  0  0
  -35.1640  156.6710    6.2380 C   0  0  0  0  0  0  0  0  0  0  0  0
  -34.1310  156.0680    7.1740 C   0  0  0  0  0  0  0  0  0  0  0  0
  -33.3900  154.9680    6.5540 N   0  0  0  0  0  0  0  0  0  0  0  0
  -33.6780  154.8000    5.1130 C   0  0  0  0  0  0  0  0  0  0  0  0
  -34.6300  153.6260    4.7910 C   0  0  0  0  0  0  0  0  0  0  0  0
  -34.1100  152.3190    5.2410 N   0  0  0  0  0  0  0  0  0  0  0  0
  -35.1950  151.3580    5.4070 C   0  0  0  0  0  0  0  0  0  0  0  0
  -33.2900  152.4510    6.4620 C   0  0  0  0  0  0  0  0  0  0  0  0
  -33.6100  153.7100    7.2970 C   0  0  0  0  0  0  0  0  0  0  0  0
  -36.5270  156.3040    6.2750 C   0  0  0  0  0  0  0  0  0  0  0  0
  -37.0750  155.2760    7.2460 C   0  0  0  0  0  0  0  0  0  0  0  0
  -36.6760  153.9980    6.9970 F   0  0  0  0  0  0  0  0  0  0  0  0
  -38.4440  155.2190    7.2070 F   0  0  0  0  0  0  0  0  0  0  0  0
  -36.7750  155.5420    8.5460 F   0  0  0  0  0  0  0  0  0  0  0  0
  -37.4260  156.9360    5.3880 C   0  0  0  0  0  0  0  0  0  0  0  0
  -39.1890  159.6360    0.8470 C   0  0  0  0  0  0  0  0  0  0  0  0
  -40.1440  160.4310    0.2030 C   0  0  0  0  0  0  0  0  0  0  0  0
  -39.7000  161.3740   -0.7800 C   0  0  0  0  0  0  0  0  0  0  0  0
  -39.3460  162.1700   -1.6070 C   0  0  0  0  0  0  0  0  0  0  0  0
  -38.9260  163.0960   -2.5960 C   0  0  0  0  0  0  0  0  0  0  0  0
  -38.6860  164.4460   -2.4630 C   0  0  0  0  0  0  0  0  0  0  0  0
  -38.2940  165.0050   -3.6550 N   0  0  0  0  0  0  0  0  0  0  0  0
  -38.2910  164.0060   -4.5140 C   0  0  0  0  0  0  0  0  0  0  0  0
  -37.9730  163.9710   -5.8900 C   0  0  0  0  0  0  0  0  0  0  0  0
  -38.0490  162.8100   -6.5520 C   0  0  0  0  0  0  0  0  0  0  0  0
  -38.4710  161.6170   -5.7790 C   0  0  0  0  0  0  0  0  0  0  0  0
  -38.7750  161.5840   -4.5200 N   0  0  0  0  0  0  0  0  0  0  0  0
  -38.6720  162.8110   -3.9170 N   0  0  0  0  0  0  0  0  0  0  0  0
  -43.1812  161.6284    0.6019 H   0  0  0  0  0  0  0  0  0  0  0  0
  -42.0724  161.8936   -0.7862 H   0  0  0  0  0  0  0  0  0  0  0  0
  -43.1913  160.4883   -0.7862 H   0  0  0  0  0  0  0  0  0  0  0  0
  -42.9574  159.2285    1.7343 H   0  0  0  0  0  0  0  0  0  0  0  0
  -41.2533  157.8152    2.8750 H   0  0  0  0  0  0  0  0  0  0  0  0
  -38.2540  159.4050    3.8310 H   0  0  0  0  0  0  0  0  0  0  0  0
  -35.2931  158.9685    3.6891 H   0  0  0  0  0  0  0  0  0  0  0  0
  -33.6800  157.9039    5.2497 H   0  0  0  0  0  0  0  0  0  0  0  0
  -33.4184  156.8532    7.4665 H   0  0  0  0  0  0  0  0  0  0  0  0
  -34.6650  155.6628    8.0461 H   0  0  0  0  0  0  0  0  0  0  0  0
  -34.1371  155.7283    4.7422 H   0  0  0  0  0  0  0  0  0  0  0  0
  -32.7195  154.5739    4.6229 H   0  0  0  0  0  0  0  0  0  0  0  0
  -35.5935  153.8098    5.2889 H   0  0  0  0  0  0  0  0  0  0  0  0
  -34.7345  153.5787    3.6970 H   0  0  0  0  0  0  0  0  0  0  0  0
  -35.3794  151.1947    6.4791 H   0  0  0  0  0  0  0  0  0  0  0  0
  -36.1074  151.7497    4.9335 H   0  0  0  0  0  0  0  0  0  0  0  0
  -34.9164  150.4050    4.9335 H   0  0  0  0  0  0  0  0  0  0  0  0
  -33.4608  151.5652    7.0914 H   0  0  0  0  0  0  0  0  0  0  0  0
  -32.2434  152.5415    6.1357 H   0  0  0  0  0  0  0  0  0  0  0  0
  -34.6645  153.6661    7.6070 H   0  0  0  0  0  0  0  0  0  0  0  0
  -32.9276  153.7143    8.1597 H   0  0  0  0  0  0  0  0  0  0  0  0
  -38.4919  156.6667    5.4260 H   0  0  0  0  0  0  0  0  0  0  0  0
  -38.1250  159.7391    0.5877 H   0  0  0  0  0  0  0  0  0  0  0  0
  -38.7945  165.0052   -1.5220 H   0  0  0  0  0  0  0  0  0  0  0  0
  -37.6659  164.8890   -6.4124 H   0  0  0  0  0  0  0  0  0  0  0  0
  -37.8087  162.7438   -7.6234 H   0  0  0  0  0  0  0  0  0  0  0  0
  -38.5320  160.6662   -6.3288 H   0  0  0  0  0  0  0  0  0  0  0  0
  1  2  1  0
  2  3  1  0
  3  4  2  0
  4  5  1  0
  5  6  1  0
  6  7  2  0
  6  8  1  0
  8  9  1  0
  9 10  1  0
 10 11  2  0
 11 12  1  0
 12 13  1  0
 13 14  1  0
 14 15  1  0
 15 16  1  0
 16 17  1  0
 17 18  1  0
 17 19  1  0
 19 20  1  0
 12 21  2  0
 21 22  1  0
 22 23  1  0
 22 24  1  0
 22 25  1  0
 21 26  1  0
  5 27  2  0
 27 28  1  0
 28 29  1  0
 29 30  3  0
 30 31  1  0
 31 32  2  0
 32 33  1  0
 33 34  2  0
 34 35  1  0
 35 36  2  0
 36 37  1  0
 37 38  2  0
 38 39  1  0
 28  2  2  0
 39 31  1  0
 26  9  2  0
 39 34  1  0
 20 14  1  0
  1 40  1  0
  1 41  1  0
  1 42  1  0
  3 43  1  0
  4 44  1  0
  8 45  1  0
 10 46  1  0
 11 47  1  0
 13 48  1  0
 13 49  1  0
 15 50  1  0
 15 51  1  0
 16 52  1  0
 16 53  1  0
 18 54  1  0
 18 55  1  0
 18 56  1  0
 19 57  1  0
 19 58  1  0
 20 59  1  0
 20 60  1  0
 26 61  1  0
 27 62  1  0
 32 63  1  0
 35 64  1  0
 36 65  1  0
 37 66  1  0
M  END
>  <meeko>  (7) 
{"is_sidechain": false}

>  <vina_affinity_kcal_mol>  (7) 
-11.006

>  <pose_rank>  (7) 
7

$$$$

     RDKit          3D

 66 70  0  0  0  0  0  0  0  0999 V2000
  -36.5680  158.8820    5.7290 C   0  0  0  0  0  0  0  0  0  0  0  0
  -36.6800  157.3860    5.8560 C   0  0  0  0  0  0  0  0  0  0  0  0
  -36.1890  156.7500    7.0070 C   0  0  0  0  0  0  0  0  0  0  0  0
  -36.2830  155.3640    7.1520 C   0  0  0  0  0  0  0  0  0  0  0  0
  -36.8660  154.5950    6.1390 C   0  0  0  0  0  0  0  0  0  0  0  0
  -36.9870  153.1140    6.2540 C   0  0  0  0  0  0  0  0  0  0  0  0
  -36.5870  152.5770    7.2780 O   0  0  0  0  0  0  0  0  0  0  0  0
  -37.5910  152.4970    5.1720 N   0  0  0  0  0  0  0  0  0  0  0  0
  -37.8050  151.1150    4.9870 C   0  0  0  0  0  0  0  0  0  0  0  0
  -36.8130  150.1480    5.1100 C   0  0  0  0  0  0  0  0  0  0  0  0
  -37.1120  148.7960    4.9140 C   0  0  0  0  0  0  0  0  0  0  0  0
  -38.4120  148.3770    4.5840 C   0  0  0  0  0  0  0  0  0  0  0  0
  -38.6720  146.8930    4.4010 C   0  0  0  0  0  0  0  0  0  0  0  0
  -37.8710  146.3140    3.3220 N   0  0  0  0  0  0  0  0  0  0  0  0
  -38.1240  146.9290    2.0010 C   0  0  0  0  0  0  0  0  0  0  0  0
  -39.0140  146.0780    1.0670 C   0  0  0  0  0  0  0  0  0  0  0  0
  -38.4420  144.7490    0.7740 N   0  0  0  0  0  0  0  0  0  0  0  0
  -39.4830  143.8150    0.3610 C   0  0  0  0  0  0  0  0  0  0  0  0
  -37.6510  144.2360    1.9110 C   0  0  0  0  0  0  0  0  0  0  0  0
  -38.0450  144.8470    3.2740 C   0  0  0  0  0  0  0  0  0  0  0  0
  -39.4230  149.3500    4.4280 C   0  0  0  0  0  0  0  0  0  0  0  0
  -40.8530  148.9990    4.0620 C   0  0  0  0  0  0  0  0  0  0  0  0
  -40.9820  148.3290    2.8830 F   0  0  0  0  0  0  0  0  0  0  0  0
  -41.6270  150.1180    3.9050 F   0  0  0  0  0  0  0  0  0  0  0  0
  -41.4920  148.2630    5.0120 F   0  0  0  0  0  0  0  0  0  0  0  0
  -39.1010  150.7080    4.6460 C   0  0  0  0  0  0  0  0  0  0  0  0
  -37.3780  155.2190    4.9980 C   0  0  0  0  0  0  0  0  0  0  0  0
  -37.2830  156.6070    4.8500 C   0  0  0  0  0  0  0  0  0  0  0  0
  -37.8110  157.2080    3.6610 C   0  0  0  0  0  0  0  0  0  0  0  0
  -38.2480  157.7290    2.6720 C   0  0  0  0  0  0  0  0  0  0  0  0
  -38.7820  158.3470    1.5120 C   0  0  0  0  0  0  0  0  0  0  0  0
  -38.1860  158.5260    0.2830 C   0  0  0  0  0  0  0  0  0  0  0  0
  -39.0260  159.1720   -0.5920 N   0  0  0  0  0  0  0  0  0  0  0  0
  -40.1290  159.3880    0.0940 C   0  0  0  0  0  0  0  0  0  0  0  0
  -41.3410  160.0130   -0.2770 C   0  0  0  0  0  0  0  0  0  0  0  0
  -42.3310  160.1090    0.6190 C   0  0  0  0  0  0  0  0  0  0  0  0
  -42.0810  159.5430    1.9660 C   0  0  0  0  0  0  0  0  0  0  0  0
  -40.9960  158.9600    2.3670 N   0  0  0  0  0  0  0  0  0  0  0  0
  -40.0340  158.9020    1.3920 N   0  0  0  0  0  0  0  0  0  0  0  0
  -36.5342  159.3336    6.7315 H   0  0  0  0  0  0  0  0  0  0  0  0
  -35.6484  159.1357    5.1814 H   0  0  0  0  0  0  0  0  0  0  0  0
  -37.4396  159.2698    5.1814 H   0  0  0  0  0  0  0  0  0  0  0  0
  -35.7250  157.3499    7.8037 H   0  0  0  0  0  0  0  0  0  0  0  0
  -35.8993  154.8779    8.0611 H   0  0  0  0  0  0  0  0  0  0  0  0
  -37.9830  153.1010    4.4620 H   0  0  0  0  0  0  0  0  0  0  0  0
  -35.7857  150.4488    5.3633 H   0  0  0  0  0  0  0  0  0  0  0  0
  -36.3142  148.0462    5.0202 H   0  0  0  0  0  0  0  0  0  0  0  0
  -38.4282  146.3735    5.3395 H   0  0  0  0  0  0  0  0  0  0  0  0
  -39.7320  146.7692    4.1346 H   0  0  0  0  0  0  0  0  0  0  0  0
  -38.6190  147.8983    2.1607 H   0  0  0  0  0  0  0  0  0  0  0  0
  -37.1471  147.0265    1.5050 H   0  0  0  0  0  0  0  0  0  0  0  0
  -39.9936  145.9392    1.5477 H   0  0  0  0  0  0  0  0  0  0  0  0
  -39.0965  146.6172    0.1118 H   0  0  0  0  0  0  0  0  0  0  0  0
  -39.9634  143.3840    1.2518 H   0  0  0  0  0  0  0  0  0  0  0  0
  -40.2352  144.3467   -0.2402 H   0  0  0  0  0  0  0  0  0  0  0  0
  -39.0356  143.0097   -0.2402 H   0  0  0  0  0  0  0  0  0  0  0  0
  -37.7908  143.1463    1.9665 H   0  0  0  0  0  0  0  0  0  0  0  0
  -36.6043  144.5186    1.7251 H   0  0  0  0  0  0  0  0  0  0  0  0
  -39.1016  144.6129    3.4706 H   0  0  0  0  0  0  0  0  0  0  0  0
  -37.3793  144.4120    4.0340 H   0  0  0  0  0  0  0  0  0  0  0  0
  -39.8905  151.4673    4.5451 H   0  0  0  0  0  0  0  0  0  0  0  0
  -37.8578  154.6162    4.2129 H   0  0  0  0  0  0  0  0  0  0  0  0
  -37.1673  158.1941    0.0337 H   0  0  0  0  0  0  0  0  0  0  0  0
  -41.4696  160.4167   -1.2921 H   0  0  0  0  0  0  0  0  0  0  0  0
  -43.2888  160.5873    0.3665 H   0  0  0  0  0  0  0  0  0  0  0  0
  -42.8980  159.6263    2.6978 H   0  0  0  0  0  0  0  0  0  0  0  0
  1  2  1  0
  2  3  1  0
  3  4  2  0
  4  5  1  0
  5  6  1  0
  6  7  2  0
  6  8  1  0
  8  9  1  0
  9 10  1  0
 10 11  2  0
 11 12  1  0
 12 13  1  0
 13 14  1  0
 14 15  1  0
 15 16  1  0
 16 17  1  0
 17 18  1  0
 17 19  1  0
 19 20  1  0
 12 21  2  0
 21 22  1  0
 22 23  1  0
 22 24  1  0
 22 25  1  0
 21 26  1  0
  5 27  2  0
 27 28  1  0
 28 29  1  0
 29 30  3  0
 30 31  1  0
 31 32  2  0
 32 33  1  0
 33 34  2  0
 34 35  1  0
 35 36  2  0
 36 37  1  0
 37 38  2  0
 38 39  1  0
 28  2  2  0
 39 31  1  0
 26  9  2  0
 39 34  1  0
 20 14  1  0
  1 40  1  0
  1 41  1  0
  1 42  1  0
  3 43  1  0
  4 44  1  0
  8 45  1  0
 10 46  1  0
 11 47  1  0
 13 48  1  0
 13 49  1  0
 15 50  1  0
 15 51  1  0
 16 52  1  0
 16 53  1  0
 18 54  1  0
 18 55  1  0
 18 56  1  0
 19 57  1  0
 19 58  1  0
 20 59  1  0
 20 60  1  0
 26 61  1  0
 27 62  1  0
 32 63  1  0
 35 64  1  0
 36 65  1  0
 37 66  1  0
M  END
>  <meeko>  (8) 
{"is_sidechain": false}

>  <vina_affinity_kcal_mol>  (8) 
-10.654

>  <pose_rank>  (8) 
8

$$$$

     RDKit          3D

 66 70  0  0  0  0  0  0  0  0999 V2000
  -36.6640  159.0860    5.8980 C   0  0  0  0  0  0  0  0  0  0  0  0
  -36.6640  157.5840    5.7900 C   0  0  0  0  0  0  0  0  0  0  0  0
  -36.0370  156.8180    6.7860 C   0  0  0  0  0  0  0  0  0  0  0  0
  -36.0260  155.4230    6.7120 C   0  0  0  0  0  0  0  0  0  0  0  0
  -36.6370  154.7770    5.6330 C   0  0  0  0  0  0  0  0  0  0  0  0
  -36.6490  153.2910    5.5150 C   0  0  0  0  0  0  0  0  0  0  0  0
  -35.5750  152.7050    5.4670 O   0  0  0  0  0  0  0  0  0  0  0  0
  -37.9100  152.7200    5.5110 N   0  0  0  0  0  0  0  0  0  0  0  0
  -38.2270  151.3520    5.3760 C   0  0  0  0  0  0  0  0  0  0  0  0
  -37.7060  150.3470    6.1840 C   0  0  0  0  0  0  0  0  0  0  0  0
  -38.0760  149.0140    5.9850 C   0  0  0  0  0  0  0  0  0  0  0  0
  -38.9760  148.6510    4.9680 C   0  0  0  0  0  0  0  0  0  0  0  0
  -39.3490  147.1870    4.8170 C   0  0  0  0  0  0  0  0  0  0  0  0
  -39.9190  146.6260    6.0430 N   0  0  0  0  0  0  0  0  0  0  0  0
  -39.7230  145.1660    6.1730 C   0  0  0  0  0  0  0  0  0  0  0  0
  -40.9790  144.3280    5.8460 C   0  0  0  0  0  0  0  0  0  0  0  0
  -42.1290  144.6450    6.7160 N   0  0  0  0  0  0  0  0  0  0  0  0
  -43.3840  144.2590    6.0790 C   0  0  0  0  0  0  0  0  0  0  0  0
  -42.1250  146.0640    7.1250 C   0  0  0  0  0  0  0  0  0  0  0  0
  -41.3470  146.9900    6.1660 C   0  0  0  0  0  0  0  0  0  0  0  0
  -39.4920  149.6570    4.1230 C   0  0  0  0  0  0  0  0  0  0  0  0
  -40.4590  149.3640    2.9920 C   0  0  0  0  0  0  0  0  0  0  0  0
  -41.5880  148.7050    3.3750 F   0  0  0  0  0  0  0  0  0  0  0  0
  -39.8980  148.5540    2.0410 F   0  0  0  0  0  0  0  0  0  0  0  0
  -40.8560  150.4750    2.3140 F   0  0  0  0  0  0  0  0  0  0  0  0
  -39.1150  150.9990    4.3530 C   0  0  0  0  0  0  0  0  0  0  0  0
  -37.2840  155.5280    4.6460 C   0  0  0  0  0  0  0  0  0  0  0  0
  -37.2950  156.9260    4.7180 C   0  0  0  0  0  0  0  0  0  0  0  0
  -37.9590  157.6600    3.6820 C   0  0  0  0  0  0  0  0  0  0  0  0
  -38.5110  158.2920    2.8230 C   0  0  0  0  0  0  0  0  0  0  0  0
  -39.1510  159.0290    1.7940 C   0  0  0  0  0  0  0  0  0  0  0  0
  -40.1050  160.0150    1.9100 C   0  0  0  0  0  0  0  0  0  0  0  0
  -40.4850  160.4930    0.6790 N   0  0  0  0  0  0  0  0  0  0  0  0
  -39.7680  159.8070   -0.1870 C   0  0  0  0  0  0  0  0  0  0  0  0
  -39.7250  159.8590   -1.5980 C   0  0  0  0  0  0  0  0  0  0  0  0
  -38.8950  159.0430   -2.2600 C   0  0  0  0  0  0  0  0  0  0  0  0
  -38.0640  158.1220   -1.4490 C   0  0  0  0  0  0  0  0  0  0  0  0
  -38.0570  158.0260   -0.1580 N   0  0  0  0  0  0  0  0  0  0  0  0
  -38.9320  158.8940    0.4430 N   0  0  0  0  0  0  0  0  0  0  0  0
  -35.6269  159.4517    5.9243 H   0  0  0  0  0  0  0  0  0  0  0  0
  -37.1825  159.5161    5.0285 H   0  0  0  0  0  0  0  0  0  0  0  0
  -37.1825  159.3873    6.8201 H   0  0  0  0  0  0  0  0  0  0  0  0
  -35.5493  157.3218    7.6335 H   0  0  0  0  0  0  0  0  0  0  0  0
  -35.5372  154.8335    7.5017 H   0  0  0  0  0  0  0  0  0  0  0  0
  -38.6910  153.3370    5.6910 H   0  0  0  0  0  0  0  0  0  0  0  0
  -36.9975  150.6031    6.9855 H   0  0  0  0  0  0  0  0  0  0  0  0
  -37.6550  148.2341    6.6366 H   0  0  0  0  0  0  0  0  0  0  0  0
  -40.0888  147.0927    4.0084 H   0  0  0  0  0  0  0  0  0  0  0  0
  -38.4289  146.6287    4.5894 H   0  0  0  0  0  0  0  0  0  0  0  0
  -38.9180  144.8634    5.4872 H   0  0  0  0  0  0  0  0  0  0  0  0
  -39.4788  144.9720    7.2279 H   0  0  0  0  0  0  0  0  0  0  0  0
  -41.2663  144.5206    4.8018 H   0  0  0  0  0  0  0  0  0  0  0  0
  -40.7217  143.2718    6.0141 H   0  0  0  0  0  0  0  0  0  0  0  0
  -44.1320  144.0289    6.8520 H   0  0  0  0  0  0  0  0  0  0  0  0
  -43.7470  145.0870    5.4524 H   0  0  0  0  0  0  0  0  0  0  0  0
  -43.2189  143.3701    5.4524 H   0  0  0  0  0  0  0  0  0  0  0  0
  -43.1670  146.4131    7.1740 H   0  0  0  0  0  0  0  0  0  0  0  0
  -41.6163  146.1137    8.0990 H   0  0  0  0  0  0  0  0  0  0  0  0
  -41.8105  146.9323    5.1701 H   0  0  0  0  0  0  0  0  0  0  0  0
  -41.3926  148.0074    6.5818 H   0  0  0  0  0  0  0  0  0  0  0  0
  -39.5310  151.7887    3.7101 H   0  0  0  0  0  0  0  0  0  0  0  0
  -37.7859  155.0183    3.8104 H   0  0  0  0  0  0  0  0  0  0  0  0
  -40.5115  160.3745    2.8668 H   0  0  0  0  0  0  0  0  0  0  0  0
  -40.3671  160.5630   -2.1476 H   0  0  0  0  0  0  0  0  0  0  0  0
  -38.8326  159.0557   -3.3582 H   0  0  0  0  0  0  0  0  0  0  0  0
  -37.3855  157.4533   -1.9989 H   0  0  0  0  0  0  0  0  0  0  0  0
  1  2  1  0
  2  3  1  0
  3  4  2  0
  4  5  1  0
  5  6  1  0
  6  7  2  0
  6  8  1  0
  8  9  1  0
  9 10  1  0
 10 11  2  0
 11 12  1  0
 12 13  1  0
 13 14  1  0
 14 15  1  0
 15 16  1  0
 16 17  1  0
 17 18  1  0
 17 19  1  0
 19 20  1  0
 12 21  2  0
 21 22  1  0
 22 23  1  0
 22 24  1  0
 22 25  1  0
 21 26  1  0
  5 27  2  0
 27 28  1  0
 28 29  1  0
 29 30  3  0
 30 31  1  0
 31 32  2  0
 32 33  1  0
 33 34  2  0
 34 35  1  0
 35 36  2  0
 36 37  1  0
 37 38  2  0
 38 39  1  0
 28  2  2  0
 39 31  1  0
 26  9  2  0
 39 34  1  0
 20 14  1  0
  1 40  1  0
  1 41  1  0
  1 42  1  0
  3 43  1  0
  4 44  1  0
  8 45  1  0
 10 46  1  0
 11 47  1  0
 13 48  1  0
 13 49  1  0
 15 50  1  0
 15 51  1  0
 16 52  1  0
 16 53  1  0
 18 54  1  0
 18 55  1  0
 18 56  1  0
 19 57  1  0
 19 58  1  0
 20 59  1  0
 20 60  1  0
 26 61  1  0
 27 62  1  0
 32 63  1  0
 35 64  1  0
 36 65  1  0
 37 66  1  0
M  END
>  <meeko>  (9) 
{"is_sidechain": false}

>  <vina_affinity_kcal_mol>  (9) 
-10.605

>  <pose_rank>  (9) 
9

$$$$

     RDKit          3D

 66 70  0  0  0  0  0  0  0  0999 V2000
  -36.5190  158.8600    5.6710 C   0  0  0  0  0  0  0  0  0  0  0  0
  -36.6440  157.3660    5.8110 C   0  0  0  0  0  0  0  0  0  0  0  0
  -36.1400  156.7330    6.9590 C   0  0  0  0  0  0  0  0  0  0  0  0
  -36.2450  155.3490    7.1160 C   0  0  0  0  0  0  0  0  0  0  0  0
  -36.8530  154.5790    6.1180 C   0  0  0  0  0  0  0  0  0  0  0  0
  -36.9870  153.1000    6.2450 C   0  0  0  0  0  0  0  0  0  0  0  0
  -36.6100  152.5710    7.2830 O   0  0  0  0  0  0  0  0  0  0  0  0
  -37.5740  152.4760    5.1580 N   0  0  0  0  0  0  0  0  0  0  0  0
  -37.7950  151.0940    4.9840 C   0  0  0  0  0  0  0  0  0  0  0  0
  -36.8030  150.1250    5.0920 C   0  0  0  0  0  0  0  0  0  0  0  0
  -37.1080  148.7730    4.9070 C   0  0  0  0  0  0  0  0  0  0  0  0
  -38.4150  148.3560    4.6050 C   0  0  0  0  0  0  0  0  0  0  0  0
  -38.6820  146.8710    4.4330 C   0  0  0  0  0  0  0  0  0  0  0  0
  -38.4140  146.1100    5.6550 N   0  0  0  0  0  0  0  0  0  0  0  0
  -38.0430  144.7010    5.4050 C   0  0  0  0  0  0  0  0  0  0  0  0
  -39.1820  143.6910    5.6700 C   0  0  0  0  0  0  0  0  0  0  0  0
  -39.6720  143.7240    7.0620 N   0  0  0  0  0  0  0  0  0  0  0  0
  -41.0260  143.1860    7.1480 C   0  0  0  0  0  0  0  0  0  0  0  0
  -39.5730  145.0780    7.6410 C   0  0  0  0  0  0  0  0  0  0  0  0
  -39.5550  146.2090    6.5900 C   0  0  0  0  0  0  0  0  0  0  0  0
  -39.4270  149.3300    4.4650 C   0  0  0  0  0  0  0  0  0  0  0  0
  -40.8640  148.9800    4.1280 C   0  0  0  0  0  0  0  0  0  0  0  0
  -41.0060  148.1800    3.0350 F   0  0  0  0  0  0  0  0  0  0  0  0
  -41.6030  150.0950    3.8320 F   0  0  0  0  0  0  0  0  0  0  0  0
  -41.5320  148.3810    5.1510 F   0  0  0  0  0  0  0  0  0  0  0  0
  -39.0980  150.6880    4.6710 C   0  0  0  0  0  0  0  0  0  0  0  0
  -37.3780  155.2000    4.9810 C   0  0  0  0  0  0  0  0  0  0  0  0
  -37.2720  156.5860    4.8210 C   0  0  0  0  0  0  0  0  0  0  0  0
  -37.8140  157.1840    3.6370 C   0  0  0  0  0  0  0  0  0  0  0  0
  -38.2620  157.7020    2.6510 C   0  0  0  0  0  0  0  0  0  0  0  0
  -38.8090  158.3170    1.4960 C   0  0  0  0  0  0  0  0  0  0  0  0
  -38.2290  158.4890    0.2590 C   0  0  0  0  0  0  0  0  0  0  0  0
  -39.0780  159.1340   -0.6080 N   0  0  0  0  0  0  0  0  0  0  0  0
  -40.1730  159.3550    0.0910 C   0  0  0  0  0  0  0  0  0  0  0  0
  -41.3880  159.9820   -0.2660 C   0  0  0  0  0  0  0  0  0  0  0  0
  -42.3650  160.0840    0.6420 C   0  0  0  0  0  0  0  0  0  0  0  0
  -42.1000  159.5220    1.9880 C   0  0  0  0  0  0  0  0  0  0  0  0
  -41.0110  158.9380    2.3780 N   0  0  0  0  0  0  0  0  0  0  0  0
  -40.0620  158.8740    1.3900 N   0  0  0  0  0  0  0  0  0  0  0  0
  -36.4805  159.3199    6.6695 H   0  0  0  0  0  0  0  0  0  0  0  0
  -35.5976  159.1009    5.1206 H   0  0  0  0  0  0  0  0  0  0  0  0
  -37.3876  159.2506    5.1206 H   0  0  0  0  0  0  0  0  0  0  0  0
  -35.6570  157.3341    7.7435 H   0  0  0  0  0  0  0  0  0  0  0  0
  -35.8507  154.8655    8.0219 H   0  0  0  0  0  0  0  0  0  0  0  0
  -37.9490  153.0760    4.4360 H   0  0  0  0  0  0  0  0  0  0  0  0
  -35.7705  150.4246    5.3248 H   0  0  0  0  0  0  0  0  0  0  0  0
  -36.3097  148.0220    4.9997 H   0  0  0  0  0  0  0  0  0  0  0  0
  -39.7370  146.7318    4.1545 H   0  0  0  0  0  0  0  0  0  0  0  0
  -38.0055  146.4973    3.6502 H   0  0  0  0  0  0  0  0  0  0  0  0
  -37.7355  144.6064    4.3531 H   0  0  0  0  0  0  0  0  0  0  0  0
  -37.2333  144.4571    6.1085 H   0  0  0  0  0  0  0  0  0  0  0  0
  -40.0208  143.9247    4.9978 H   0  0  0  0  0  0  0  0  0  0  0  0
  -38.7772  142.6845    5.4882 H   0  0  0  0  0  0  0  0  0  0  0  0
  -41.3094  143.0734    8.2049 H   0  0  0  0  0  0  0  0  0  0  0  0
  -41.7262  143.8742    6.6520 H   0  0  0  0  0  0  0  0  0  0  0  0
  -41.0629  142.2049    6.6520 H   0  0  0  0  0  0  0  0  0  0  0  0
  -40.4367  145.2351    8.3038 H   0  0  0  0  0  0  0  0  0  0  0  0
  -38.6140  145.1260    8.1777 H   0  0  0  0  0  0  0  0  0  0  0  0
  -40.4886  146.1635    6.0100 H   0  0  0  0  0  0  0  0  0  0  0  0
  -39.4547  147.1608    7.1323 H   0  0  0  0  0  0  0  0  0  0  0  0
  -39.8880  151.4484    4.5830 H   0  0  0  0  0  0  0  0  0  0  0  0
  -37.8768  154.5963    4.2085 H   0  0  0  0  0  0  0  0  0  0  0  0
  -37.2147  158.1527   -0.0021 H   0  0  0  0  0  0  0  0  0  0  0  0
  -41.5290  160.3823   -1.2808 H   0  0  0  0  0  0  0  0  0  0  0  0
  -43.3245  160.5646    0.4002 H   0  0  0  0  0  0  0  0  0  0  0  0
  -42.9080  159.6094    2.7292 H   0  0  0  0  0  0  0  0  0  0  0  0
  1  2  1  0
  2  3  1  0
  3  4  2  0
  4  5  1  0
  5  6  1  0
  6  7  2  0
  6  8  1  0
  8  9  1  0
  9 10  1  0
 10 11  2  0
 11 12  1  0
 12 13  1  0
 13 14  1  0
 14 15  1  0
 15 16  1  0
 16 17  1  0
 17 18  1  0
 17 19  1  0
 19 20  1  0
 12 21  2  0
 21 22  1  0
 22 23  1  0
 22 24  1  0
 22 25  1  0
 21 26  1  0
  5 27  2  0
 27 28  1  0
 28 29  1  0
 29 30  3  0
 30 31  1  0
 31 32  2  0
 32 33  1  0
 33 34  2  0
 34 35  1  0
 35 36  2  0
 36 37  1  0
 37 38  2  0
 38 39  1  0
 28  2  2  0
 39 31  1  0
 26  9  2  0
 39 34  1  0
 20 14  1  0
  1 40  1  0
  1 41  1  0
  1 42  1  0
  3 43  1  0
  4 44  1  0
  8 45  1  0
 10 46  1  0
 11 47  1  0
 13 48  1  0
 13 49  1  0
 15 50  1  0
 15 51  1  0
 16 52  1  0
 16 53  1  0
 18 54  1  0
 18 55  1  0
 18 56  1  0
 19 57  1  0
 19 58  1  0
 20 59  1  0
 20 60  1  0
 26 61  1  0
 27 62  1  0
 32 63  1  0
 35 64  1  0
 36 65  1  0
 37 66  1  0
M  END
>  <meeko>  (10) 
{"is_sidechain": false}

>  <vina_affinity_kcal_mol>  (10) 
-10.516

>  <pose_rank>  (10) 
10

$$$$
