
     RDKit          3D

 48 50  0  0  0  0  0  0  0  0999 V2000
  -20.1510   -0.0970   -6.5040 C   0  0  0  0  0  0  0  0  0  0  0  0
  -18.7690   -0.3980   -6.7580 N   0  0  0  0  0  0  0  0  0  0  0  0
  -17.7680   -0.0820   -5.8650 C   0  0  0  0  0  0  0  0  0  0  0  0
  -17.9390    0.5680   -4.8400 O   0  0  0  0  0  0  0  0  0  0  0  0
  -16.4170   -0.6100   -6.2420 C   0  0  0  0  0  0  0  0  0  0  0  0
  -16.1450   -0.9220   -7.5660 C   0  0  0  0  0  0  0  0  0  0  0  0
  -14.8760   -1.4110   -7.8590 C   0  0  0  0  0  0  0  0  0  0  0  0
  -14.5070   -1.7960   -9.1270 O   0  0  0  0  0  0  0  0  0  0  0  0
  -13.6980   -0.9290   -9.8260 C   0  0  0  0  0  0  0  0  0  0  0  0
  -12.3620   -1.2910   -9.9940 C   0  0  0  0  0  0  0  0  0  0  0  0
  -11.4840   -0.4340  -10.6630 C   0  0  0  0  0  0  0  0  0  0  0  0
  -11.9360    0.7920  -11.1680 C   0  0  0  0  0  0  0  0  0  0  0  0
  -10.9960    1.6110  -11.8310 N   0  0  0  0  0  0  0  0  0  0  0  0
  -10.9460    1.8070  -13.2060 C   0  0  0  0  0  0  0  0  0  0  0  0
  -11.5540    1.1370  -14.0270 O   0  0  0  0  0  0  0  0  0  0  0  0
  -10.0720    2.8440  -13.4980 N   0  0  0  0  0  0  0  0  0  0  0  0
   -9.6500    3.2740  -14.7730 C   0  0  0  0  0  0  0  0  0  0  0  0
   -8.5510    2.7460  -15.4460 C   0  0  0  0  0  0  0  0  0  0  0  0
   -8.1920    3.2350  -16.7060 C   0  0  0  0  0  0  0  0  0  0  0  0
   -8.9240    4.2630  -17.3040 C   0  0  0  0  0  0  0  0  0  0  0  0
   -8.4140    4.8110  -18.8580 Cl  0  0  0  0  0  0  0  0  0  0  0  0
  -10.0270    4.8150  -16.6450 C   0  0  0  0  0  0  0  0  0  0  0  0
  -10.8340    5.9250  -17.2590 C   0  0  0  0  0  0  0  0  0  0  0  0
  -11.8860    6.3100  -16.4760 F   0  0  0  0  0  0  0  0  0  0  0  0
  -10.1130    7.0600  -17.4680 F   0  0  0  0  0  0  0  0  0  0  0  0
  -11.3860    5.5890  -18.4570 F   0  0  0  0  0  0  0  0  0  0  0  0
  -10.3760    4.3090  -15.3750 C   0  0  0  0  0  0  0  0  0  0  0  0
  -13.2690    1.1620  -10.9400 C   0  0  0  0  0  0  0  0  0  0  0  0
  -13.7180    2.3820  -11.2650 F   0  0  0  0  0  0  0  0  0  0  0  0
  -14.1520    0.3090  -10.2780 C   0  0  0  0  0  0  0  0  0  0  0  0
  -13.9470   -1.6030   -6.8420 C   0  0  0  0  0  0  0  0  0  0  0  0
  -14.3100   -1.2570   -5.5520 C   0  0  0  0  0  0  0  0  0  0  0  0
  -15.5200   -0.7580   -5.2220 N   0  0  0  0  0  0  0  0  0  0  0  0
  -20.3245   -0.0592   -5.4184 H   0  0  0  0  0  0  0  0  0  0  0  0
  -20.4020    0.8769   -6.9496 H   0  0  0  0  0  0  0  0  0  0  0  0
  -20.7843   -0.8783   -6.9496 H   0  0  0  0  0  0  0  0  0  0  0  0
  -18.5080   -1.0260   -7.5140 H   0  0  0  0  0  0  0  0  0  0  0  0
  -16.9022   -0.7881   -8.3526 H   0  0  0  0  0  0  0  0  0  0  0  0
  -11.9990   -2.2516   -9.5998 H   0  0  0  0  0  0  0  0  0  0  0  0
  -10.4310   -0.7240  -10.7939 H   0  0  0  0  0  0  0  0  0  0  0  0
  -10.1110    1.7490  -11.3640 H   0  0  0  0  0  0  0  0  0  0  0  0
   -9.8700    3.4570  -12.7210 H   0  0  0  0  0  0  0  0  0  0  0  0
   -7.9621    1.9399  -14.9839 H   0  0  0  0  0  0  0  0  0  0  0  0
   -7.3255    2.8062  -17.2306 H   0  0  0  0  0  0  0  0  0  0  0  0
  -11.2392    4.7379  -14.8450 H   0  0  0  0  0  0  0  0  0  0  0  0
  -15.1971    0.6105  -10.1141 H   0  0  0  0  0  0  0  0  0  0  0  0
  -12.9513   -2.0183   -7.0569 H   0  0  0  0  0  0  0  0  0  0  0  0
  -13.5703   -1.3966   -4.7499 H   0  0  0  0  0  0  0  0  0  0  0  0
  1  2  1  0
  2  3  1  0
  3  4  2  0
  3  5  1  0
  5  6  2  0
  6  7  1  0
  7  8  1  0
  8  9  1  0
  9 10  1  0
 10 11  2  0
 11 12  1  0
 12 13  1  0
 13 14  1  0
 14 15  2  0
 14 16  1  0
 16 17  1  0
 17 18  1  0
 18 19  2  0
 19 20  1  0
 20 21  1  0
 20 22  2  0
 22 23  1  0
 23 24  1  0
 23 25  1  0
 23 26  1  0
 22 27  1  0
 12 28  2  0
 28 29  1  0
 28 30  1  0
  7 31  2  0
 31 32  1  0
 32 33  2  0
 33  5  1  0
 30  9  2  0
 27 17  2  0
  1 34  1  0
  1 35  1  0
  1 36  1  0
  2 37  1  0
  6 38  1  0
 10 39  1  0
 11 40  1  0
 13 41  1  0
 16 42  1  0
 18 43  1  0
 19 44  1  0
 27 45  1  0
 30 46  1  0
 31 47  1  0
 32 48  1  0
M  END
>  <meeko>  (1) 
{"is_sidechain": false}

>  <vina_affinity_kcal_mol>  (1) 
-9.096

>  <pose_rank>  (1) 
1

$$$$

     RDKit          3D

 48 50  0  0  0  0  0  0  0  0999 V2000
  -11.7980   -7.8430   -9.5320 C   0  0  0  0  0  0  0  0  0  0  0  0
  -12.2460   -6.6090   -8.9470 N   0  0  0  0  0  0  0  0  0  0  0  0
  -13.0380   -5.7120   -9.6310 C   0  0  0  0  0  0  0  0  0  0  0  0
  -13.3440   -5.8240  -10.8130 O   0  0  0  0  0  0  0  0  0  0  0  0
  -13.5220   -4.5610   -8.8020 C   0  0  0  0  0  0  0  0  0  0  0  0
  -14.0300   -3.4310   -9.4240 C   0  0  0  0  0  0  0  0  0  0  0  0
  -14.4620   -2.3920   -8.6060 C   0  0  0  0  0  0  0  0  0  0  0  0
  -14.9430   -1.2050   -9.1090 O   0  0  0  0  0  0  0  0  0  0  0  0
  -14.0580   -0.4310   -9.8230 C   0  0  0  0  0  0  0  0  0  0  0  0
  -12.7160   -0.8060   -9.8020 C   0  0  0  0  0  0  0  0  0  0  0  0
  -11.7640   -0.0360  -10.4780 C   0  0  0  0  0  0  0  0  0  0  0  0
  -12.1490    1.1130  -11.1800 C   0  0  0  0  0  0  0  0  0  0  0  0
  -11.1370    1.8460  -11.8380 N   0  0  0  0  0  0  0  0  0  0  0  0
  -11.0770    2.0560  -13.2110 C   0  0  0  0  0  0  0  0  0  0  0  0
  -11.7540    1.4620  -14.0360 O   0  0  0  0  0  0  0  0  0  0  0  0
  -10.1070    3.0060  -13.4950 N   0  0  0  0  0  0  0  0  0  0  0  0
   -9.6540    3.4110  -14.7660 C   0  0  0  0  0  0  0  0  0  0  0  0
   -8.4980    2.9230  -15.3710 C   0  0  0  0  0  0  0  0  0  0  0  0
   -8.1100    3.3850  -16.6330 C   0  0  0  0  0  0  0  0  0  0  0  0
   -8.8720    4.3450  -17.3020 C   0  0  0  0  0  0  0  0  0  0  0  0
   -8.3240    4.8630  -18.8540 Cl  0  0  0  0  0  0  0  0  0  0  0  0
  -10.0320    4.8570  -16.7130 C   0  0  0  0  0  0  0  0  0  0  0  0
  -10.8720    5.8950  -17.4050 C   0  0  0  0  0  0  0  0  0  0  0  0
  -11.9890    6.2310  -16.6930 F   0  0  0  0  0  0  0  0  0  0  0  0
  -10.2140    7.0690  -17.6080 F   0  0  0  0  0  0  0  0  0  0  0  0
  -11.3320    5.4910  -18.6210 F   0  0  0  0  0  0  0  0  0  0  0  0
  -10.4090    4.3800  -15.4400 C   0  0  0  0  0  0  0  0  0  0  0  0
  -13.4950    1.5040  -11.1410 C   0  0  0  0  0  0  0  0  0  0  0  0
  -13.8960    2.6710  -11.6630 F   0  0  0  0  0  0  0  0  0  0  0  0
  -14.4500    0.7390  -10.4730 C   0  0  0  0  0  0  0  0  0  0  0  0
  -14.3470   -2.4940   -7.2230 C   0  0  0  0  0  0  0  0  0  0  0  0
  -13.8320   -3.6650   -6.6960 C   0  0  0  0  0  0  0  0  0  0  0  0
  -13.4200   -4.7080   -7.4470 N   0  0  0  0  0  0  0  0  0  0  0  0
  -11.5397   -8.5546   -8.7339 H   0  0  0  0  0  0  0  0  0  0  0  0
  -12.6000   -8.2659  -10.1549 H   0  0  0  0  0  0  0  0  0  0  0  0
  -10.9115   -7.6529  -10.1549 H   0  0  0  0  0  0  0  0  0  0  0  0
  -12.1540   -6.4480   -7.9470 H   0  0  0  0  0  0  0  0  0  0  0  0
  -14.0891   -3.3588  -10.5200 H   0  0  0  0  0  0  0  0  0  0  0  0
  -12.4054   -1.7076   -9.2537 H   0  0  0  0  0  0  0  0  0  0  0  0
  -10.7056   -0.3350  -10.4581 H   0  0  0  0  0  0  0  0  0  0  0  0
  -10.2400    1.8880  -11.3770 H   0  0  0  0  0  0  0  0  0  0  0  0
   -9.8400    3.5850  -12.7110 H   0  0  0  0  0  0  0  0  0  0  0  0
   -7.8864    2.1696  -14.8530 H   0  0  0  0  0  0  0  0  0  0  0  0
   -7.1973    2.9889  -17.1022 H   0  0  0  0  0  0  0  0  0  0  0  0
  -11.3177    4.7784  -14.9650 H   0  0  0  0  0  0  0  0  0  0  0  0
  -15.5034    1.0554  -10.4587 H   0  0  0  0  0  0  0  0  0  0  0  0
  -14.6568   -1.6670   -6.5672 H   0  0  0  0  0  0  0  0  0  0  0  0
  -13.7538   -3.7509   -5.6021 H   0  0  0  0  0  0  0  0  0  0  0  0
  1  2  1  0
  2  3  1  0
  3  4  2  0
  3  5  1  0
  5  6  2  0
  6  7  1  0
  7  8  1  0
  8  9  1  0
  9 10  1  0
 10 11  2  0
 11 12  1  0
 12 13  1  0
 13 14  1  0
 14 15  2  0
 14 16  1  0
 16 17  1  0
 17 18  1  0
 18 19  2  0
 19 20  1  0
 20 21  1  0
 20 22  2  0
 22 23  1  0
 23 24  1  0
 23 25  1  0
 23 26  1  0
 22 27  1  0
 12 28  2  0
 28 29  1  0
 28 30  1  0
  7 31  2  0
 31 32  1  0
 32 33  2  0
 33  5  1  0
 30  9  2  0
 27 17  2  0
  1 34  1  0
  1 35  1  0
  1 36  1  0
  2 37  1  0
  6 38  1  0
 10 39  1  0
 11 40  1  0
 13 41  1  0
 16 42  1  0
 18 43  1  0
 19 44  1  0
 27 45  1  0
 30 46  1  0
 31 47  1  0
 32 48  1  0
M  END
>  <meeko>  (2) 
{"is_sidechain": false}

>  <vina_affinity_kcal_mol>  (2) 
-8.817

>  <pose_rank>  (2) 
2

$$$$

     RDKit          3D

 48 50  0  0  0  0  0  0  0  0999 V2000
   -2.8470    0.3240  -19.5220 C   0  0  0  0  0  0  0  0  0  0  0  0
   -3.4870   -0.5760  -18.6030 N   0  0  0  0  0  0  0  0  0  0  0  0
   -3.2160   -0.5680  -17.2520 C   0  0  0  0  0  0  0  0  0  0  0  0
   -2.3450    0.1170  -16.7270 O   0  0  0  0  0  0  0  0  0  0  0  0
   -4.0920   -1.4760  -16.4430 C   0  0  0  0  0  0  0  0  0  0  0  0
   -5.1430   -0.9450  -15.7100 C   0  0  0  0  0  0  0  0  0  0  0  0
   -5.9220   -1.8330  -14.9760 C   0  0  0  0  0  0  0  0  0  0  0  0
   -6.9630   -1.4180  -14.1770 O   0  0  0  0  0  0  0  0  0  0  0  0
   -7.6530   -0.3010  -14.5890 C   0  0  0  0  0  0  0  0  0  0  0  0
   -8.0910   -0.2690  -15.9130 C   0  0  0  0  0  0  0  0  0  0  0  0
   -8.7630    0.8560  -16.3990 C   0  0  0  0  0  0  0  0  0  0  0  0
   -9.0020    1.9560  -15.5650 C   0  0  0  0  0  0  0  0  0  0  0  0
   -9.6850    3.0610  -16.1210 N   0  0  0  0  0  0  0  0  0  0  0  0
   -9.0680    4.1570  -16.7130 C   0  0  0  0  0  0  0  0  0  0  0  0
   -7.8750    4.4110  -16.6330 O   0  0  0  0  0  0  0  0  0  0  0  0
  -10.0170    4.9310  -17.3630 N   0  0  0  0  0  0  0  0  0  0  0  0
   -9.8220    6.1830  -17.9800 C   0  0  0  0  0  0  0  0  0  0  0  0
   -9.3890    7.3220  -17.3050 C   0  0  0  0  0  0  0  0  0  0  0  0
   -9.2290    8.5320  -17.9890 C   0  0  0  0  0  0  0  0  0  0  0  0
   -9.5070    8.6170  -19.3550 C   0  0  0  0  0  0  0  0  0  0  0  0
   -9.2870   10.1450  -20.1240 Cl  0  0  0  0  0  0  0  0  0  0  0  0
   -9.9510    7.4900  -20.0540 C   0  0  0  0  0  0  0  0  0  0  0  0
  -10.2630    7.5480  -21.5230 C   0  0  0  0  0  0  0  0  0  0  0  0
  -10.7060    6.3540  -22.0180 F   0  0  0  0  0  0  0  0  0  0  0  0
  -11.2410    8.4440  -21.8280 F   0  0  0  0  0  0  0  0  0  0  0  0
   -9.1850    7.8730  -22.2890 F   0  0  0  0  0  0  0  0  0  0  0  0
  -10.1060    6.2780  -19.3490 C   0  0  0  0  0  0  0  0  0  0  0  0
   -8.5040    1.9260  -14.2550 C   0  0  0  0  0  0  0  0  0  0  0  0
   -8.5680    3.0040  -13.4610 F   0  0  0  0  0  0  0  0  0  0  0  0
   -7.8370    0.8060  -13.7620 C   0  0  0  0  0  0  0  0  0  0  0  0
   -5.6170   -3.1910  -14.9650 C   0  0  0  0  0  0  0  0  0  0  0  0
   -4.5520   -3.6260  -15.7330 C   0  0  0  0  0  0  0  0  0  0  0  0
   -3.7810   -2.8060  -16.4790 N   0  0  0  0  0  0  0  0  0  0  0  0
   -2.2992    1.0943  -18.9594 H   0  0  0  0  0  0  0  0  0  0  0  0
   -2.1439   -0.2371  -20.1551 H   0  0  0  0  0  0  0  0  0  0  0  0
   -3.6078    0.8039  -20.1551 H   0  0  0  0  0  0  0  0  0  0  0  0
   -4.3010   -1.1140  -18.8900 H   0  0  0  0  0  0  0  0  0  0  0  0
   -5.3519    0.1350  -15.7093 H   0  0  0  0  0  0  0  0  0  0  0  0
   -7.9076   -1.1287  -16.5742 H   0  0  0  0  0  0  0  0  0  0  0  0
   -9.1067    0.8779  -17.4437 H   0  0  0  0  0  0  0  0  0  0  0  0
  -10.6020    3.2580  -15.7470 H   0  0  0  0  0  0  0  0  0  0  0  0
  -10.8840    4.4550  -17.5650 H   0  0  0  0  0  0  0  0  0  0  0  0
   -9.1716    7.2698  -16.2280 H   0  0  0  0  0  0  0  0  0  0  0  0
   -8.8814    9.4236  -17.4465 H   0  0  0  0  0  0  0  0  0  0  0  0
  -10.4584    5.3856  -19.8870 H   0  0  0  0  0  0  0  0  0  0  0  0
   -7.4589    0.7956  -12.7291 H   0  0  0  0  0  0  0  0  0  0  0  0
   -6.2061   -3.8982  -14.3627 H   0  0  0  0  0  0  0  0  0  0  0  0
   -4.3199   -4.7012  -15.7362 H   0  0  0  0  0  0  0  0  0  0  0  0
  1  2  1  0
  2  3  1  0
  3  4  2  0
  3  5  1  0
  5  6  2  0
  6  7  1  0
  7  8  1  0
  8  9  1  0
  9 10  1  0
 10 11  2  0
 11 12  1  0
 12 13  1  0
 13 14  1  0
 14 15  2  0
 14 16  1  0
 16 17  1  0
 17 18  1  0
 18 19  2  0
 19 20  1  0
 20 21  1  0
 20 22  2  0
 22 23  1  0
 23 24  1  0
 23 25  1  0
 23 26  1  0
 22 27  1  0
 12 28  2  0
 28 29  1  0
 28 30  1  0
  7 31  2  0
 31 32  1  0
 32 33  2  0
 33  5  1  0
 30  9  2  0
 27 17  2  0
  1 34  1  0
  1 35  1  0
  1 36  1  0
  2 37  1  0
  6 38  1  0
 10 39  1  0
 11 40  1  0
 13 41  1  0
 16 42  1  0
 18 43  1  0
 19 44  1  0
 27 45  1  0
 30 46  1  0
 31 47  1  0
 32 48  1  0
M  END
>  <meeko>  (3) 
{"is_sidechain": false}

>  <vina_affinity_kcal_mol>  (3) 
-8.787

>  <pose_rank>  (3) 
3

$$$$

     RDKit          3D

 48 50  0  0  0  0  0  0  0  0999 V2000
   -6.8550   -0.4890   -6.9490 C   0  0  0  0  0  0  0  0  0  0  0  0
   -6.5570   -0.3560   -8.3480 N   0  0  0  0  0  0  0  0  0  0  0  0
   -5.6900   -1.2050   -9.0020 C   0  0  0  0  0  0  0  0  0  0  0  0
   -5.0210   -2.0700   -8.4470 O   0  0  0  0  0  0  0  0  0  0  0  0
   -5.6260   -0.9970  -10.4850 C   0  0  0  0  0  0  0  0  0  0  0  0
   -6.7440   -1.2520  -11.2640 C   0  0  0  0  0  0  0  0  0  0  0  0
   -6.6280   -1.0440  -12.6350 C   0  0  0  0  0  0  0  0  0  0  0  0
   -7.6560   -1.3050  -13.5120 O   0  0  0  0  0  0  0  0  0  0  0  0
   -8.1750   -0.2300  -14.1950 C   0  0  0  0  0  0  0  0  0  0  0  0
   -9.0190    0.6300  -13.4920 C   0  0  0  0  0  0  0  0  0  0  0  0
   -9.6070    1.7190  -14.1430 C   0  0  0  0  0  0  0  0  0  0  0  0
   -9.3550    1.9550  -15.5000 C   0  0  0  0  0  0  0  0  0  0  0  0
   -9.9840    3.0710  -16.0960 N   0  0  0  0  0  0  0  0  0  0  0  0
   -9.3130    4.1480  -16.6620 C   0  0  0  0  0  0  0  0  0  0  0  0
   -8.1200    4.3760  -16.5250 O   0  0  0  0  0  0  0  0  0  0  0  0
  -10.2110    4.9400  -17.3630 N   0  0  0  0  0  0  0  0  0  0  0  0
   -9.9560    6.1830  -17.9780 C   0  0  0  0  0  0  0  0  0  0  0  0
   -9.4750    7.3000  -17.2990 C   0  0  0  0  0  0  0  0  0  0  0  0
   -9.2580    8.5020  -17.9810 C   0  0  0  0  0  0  0  0  0  0  0  0
   -9.5260    8.6010  -19.3470 C   0  0  0  0  0  0  0  0  0  0  0  0
   -9.2340   10.1200  -20.1130 Cl  0  0  0  0  0  0  0  0  0  0  0  0
  -10.0180    7.4970  -20.0500 C   0  0  0  0  0  0  0  0  0  0  0  0
  -10.3210    7.5710  -21.5210 C   0  0  0  0  0  0  0  0  0  0  0  0
   -9.2350    7.9360  -22.2660 F   0  0  0  0  0  0  0  0  0  0  0  0
  -10.7290    6.3830  -22.0450 F   0  0  0  0  0  0  0  0  0  0  0  0
  -11.2840    8.4830  -21.8250 F   0  0  0  0  0  0  0  0  0  0  0  0
  -10.2300    6.2920  -19.3470 C   0  0  0  0  0  0  0  0  0  0  0  0
   -8.5490    1.0470  -16.2010 C   0  0  0  0  0  0  0  0  0  0  0  0
   -8.3960    1.1350  -17.5300 F   0  0  0  0  0  0  0  0  0  0  0  0
   -7.9560   -0.0380  -15.5580 C   0  0  0  0  0  0  0  0  0  0  0  0
   -5.4170   -0.6300  -13.1810 C   0  0  0  0  0  0  0  0  0  0  0  0
   -4.3590   -0.3970  -12.3210 C   0  0  0  0  0  0  0  0  0  0  0  0
   -4.4300   -0.5630  -10.9830 N   0  0  0  0  0  0  0  0  0  0  0  0
   -6.0088   -0.1113   -6.3563 H   0  0  0  0  0  0  0  0  0  0  0  0
   -7.7583    0.0914   -6.7097 H   0  0  0  0  0  0  0  0  0  0  0  0
   -7.0262   -1.5489   -6.7097 H   0  0  0  0  0  0  0  0  0  0  0  0
   -7.1220    0.2450   -8.9420 H   0  0  0  0  0  0  0  0  0  0  0  0
   -7.6849   -1.6046  -10.8164 H   0  0  0  0  0  0  0  0  0  0  0  0
   -9.2219    0.4515  -12.4257 H   0  0  0  0  0  0  0  0  0  0  0  0
  -10.2720    2.3948  -13.5853 H   0  0  0  0  0  0  0  0  0  0  0  0
  -10.9130    3.2920  -15.7680 H   0  0  0  0  0  0  0  0  0  0  0  0
  -11.0780    4.4820  -17.6050 H   0  0  0  0  0  0  0  0  0  0  0  0
   -9.2647    7.2367  -16.2211 H   0  0  0  0  0  0  0  0  0  0  0  0
   -8.8729    9.3764  -17.4360 H   0  0  0  0  0  0  0  0  0  0  0  0
  -10.6200    5.4169  -19.8875 H   0  0  0  0  0  0  0  0  0  0  0  0
   -7.3204   -0.7370  -16.1215 H   0  0  0  0  0  0  0  0  0  0  0  0
   -5.3041   -0.4918  -14.2664 H   0  0  0  0  0  0  0  0  0  0  0  0
   -3.4056   -0.0571  -12.7517 H   0  0  0  0  0  0  0  0  0  0  0  0
  1  2  1  0
  2  3  1  0
  3  4  2  0
  3  5  1  0
  5  6  2  0
  6  7  1  0
  7  8  1  0
  8  9  1  0
  9 10  1  0
 10 11  2  0
 11 12  1  0
 12 13  1  0
 13 14  1  0
 14 15  2  0
 14 16  1  0
 16 17  1  0
 17 18  1  0
 18 19  2  0
 19 20  1  0
 20 21  1  0
 20 22  2  0
 22 23  1  0
 23 24  1  0
 23 25  1  0
 23 26  1  0
 22 27  1  0
 12 28  2  0
 28 29  1  0
 28 30  1  0
  7 31  2  0
 31 32  1  0
 32 33  2  0
 33  5  1  0
 30  9  2  0
 27 17  2  0
  1 34  1  0
  1 35  1  0
  1 36  1  0
  2 37  1  0
  6 38  1  0
 10 39  1  0
 11 40  1  0
 13 41  1  0
 16 42  1  0
 18 43  1  0
 19 44  1  0
 27 45  1  0
 30 46  1  0
 31 47  1  0
 32 48  1  0
M  END
>  <meeko>  (4) 
{"is_sidechain": false}

>  <vina_affinity_kcal_mol>  (4) 
-8.72

>  <pose_rank>  (4) 
4

$$$$

     RDKit          3D

 48 50  0  0  0  0  0  0  0  0999 V2000
  -20.0990   -0.3200   -6.4610 C   0  0  0  0  0  0  0  0  0  0  0  0
  -18.7090   -0.5670   -6.7270 N   0  0  0  0  0  0  0  0  0  0  0  0
  -17.7110   -0.1890   -5.8550 C   0  0  0  0  0  0  0  0  0  0  0  0
  -17.8960    0.4750   -4.8420 O   0  0  0  0  0  0  0  0  0  0  0  0
  -16.3430   -0.6680   -6.2400 C   0  0  0  0  0  0  0  0  0  0  0  0
  -16.0740   -0.9920   -7.5610 C   0  0  0  0  0  0  0  0  0  0  0  0
  -14.7890   -1.4330   -7.8610 C   0  0  0  0  0  0  0  0  0  0  0  0
  -14.4180   -1.8240   -9.1270 O   0  0  0  0  0  0  0  0  0  0  0  0
  -13.6240   -0.9530   -9.8360 C   0  0  0  0  0  0  0  0  0  0  0  0
  -12.3000   -1.3280  -10.0600 C   0  0  0  0  0  0  0  0  0  0  0  0
  -11.4350   -0.4660  -10.7420 C   0  0  0  0  0  0  0  0  0  0  0  0
  -11.8900    0.7750  -11.2050 C   0  0  0  0  0  0  0  0  0  0  0  0
  -10.9630    1.5970  -11.8840 N   0  0  0  0  0  0  0  0  0  0  0  0
  -11.0690    1.9750  -13.2180 C   0  0  0  0  0  0  0  0  0  0  0  0
  -11.8410    1.4770  -14.0230 O   0  0  0  0  0  0  0  0  0  0  0  0
  -10.1390    2.9660  -13.4960 N   0  0  0  0  0  0  0  0  0  0  0  0
   -9.8420    3.5310  -14.7530 C   0  0  0  0  0  0  0  0  0  0  0  0
  -10.6830    4.4150  -15.4250 C   0  0  0  0  0  0  0  0  0  0  0  0
  -10.3190    4.9240  -16.6760 C   0  0  0  0  0  0  0  0  0  0  0  0
   -9.1130    4.5490  -17.2710 C   0  0  0  0  0  0  0  0  0  0  0  0
   -8.7390    5.2210  -18.8160 Cl  0  0  0  0  0  0  0  0  0  0  0  0
   -8.2550    3.6570  -16.6210 C   0  0  0  0  0  0  0  0  0  0  0  0
   -6.9510    3.2300  -17.2360 C   0  0  0  0  0  0  0  0  0  0  0  0
   -6.1260    4.2840  -17.5120 F   0  0  0  0  0  0  0  0  0  0  0  0
   -6.2220    2.4100  -16.4300 F   0  0  0  0  0  0  0  0  0  0  0  0
   -7.1040    2.5770  -18.4200 F   0  0  0  0  0  0  0  0  0  0  0  0
   -8.6370    3.1540  -15.3590 C   0  0  0  0  0  0  0  0  0  0  0  0
  -13.2090    1.1560  -10.9200 C   0  0  0  0  0  0  0  0  0  0  0  0
  -13.6530    2.3890  -11.2030 F   0  0  0  0  0  0  0  0  0  0  0  0
  -14.0770    0.3000  -10.2450 C   0  0  0  0  0  0  0  0  0  0  0  0
  -13.8410   -1.5690   -6.8510 C   0  0  0  0  0  0  0  0  0  0  0  0
  -14.2030   -1.2150   -5.5640 C   0  0  0  0  0  0  0  0  0  0  0  0
  -15.4300   -0.7610   -5.2280 N   0  0  0  0  0  0  0  0  0  0  0  0
  -20.2647   -0.2906   -5.3740 H   0  0  0  0  0  0  0  0  0  0  0  0
  -20.3912    0.6441   -6.9027 H   0  0  0  0  0  0  0  0  0  0  0  0
  -20.7054   -1.1245   -6.9027 H   0  0  0  0  0  0  0  0  0  0  0  0
  -18.4310   -1.2000   -7.4730 H   0  0  0  0  0  0  0  0  0  0  0  0
  -16.8453   -0.9039   -8.3403 H   0  0  0  0  0  0  0  0  0  0  0  0
  -11.9357   -2.3017   -9.7004 H   0  0  0  0  0  0  0  0  0  0  0  0
  -10.3907   -0.7647  -10.9158 H   0  0  0  0  0  0  0  0  0  0  0  0
  -10.0170    1.5950  -11.5320 H   0  0  0  0  0  0  0  0  0  0  0  0
   -9.7790    3.4480  -12.6840 H   0  0  0  0  0  0  0  0  0  0  0  0
  -11.6384    4.7144  -14.9695 H   0  0  0  0  0  0  0  0  0  0  0  0
  -10.9885    5.6255  -17.1953 H   0  0  0  0  0  0  0  0  0  0  0  0
   -7.9722    2.4488  -14.8387 H   0  0  0  0  0  0  0  0  0  0  0  0
  -15.1114    0.6107  -10.0366 H   0  0  0  0  0  0  0  0  0  0  0  0
  -12.8318   -1.9476   -7.0704 H   0  0  0  0  0  0  0  0  0  0  0  0
  -13.4488   -1.3085   -4.7687 H   0  0  0  0  0  0  0  0  0  0  0  0
  1  2  1  0
  2  3  1  0
  3  4  2  0
  3  5  1  0
  5  6  2  0
  6  7  1  0
  7  8  1  0
  8  9  1  0
  9 10  1  0
 10 11  2  0
 11 12  1  0
 12 13  1  0
 13 14  1  0
 14 15  2  0
 14 16  1  0
 16 17  1  0
 17 18  1  0
 18 19  2  0
 19 20  1  0
 20 21  1  0
 20 22  2  0
 22 23  1  0
 23 24  1  0
 23 25  1  0
 23 26  1  0
 22 27  1  0
 12 28  2  0
 28 29  1  0
 28 30  1  0
  7 31  2  0
 31 32  1  0
 32 33  2  0
 33  5  1  0
 30  9  2  0
 27 17  2  0
  1 34  1  0
  1 35  1  0
  1 36  1  0
  2 37  1  0
  6 38  1  0
 10 39  1  0
 11 40  1  0
 13 41  1  0
 16 42  1  0
 18 43  1  0
 19 44  1  0
 27 45  1  0
 30 46  1  0
 31 47  1  0
 32 48  1  0
M  END
>  <meeko>  (5) 
{"is_sidechain": false}

>  <vina_affinity_kcal_mol>  (5) 
-8.697

>  <pose_rank>  (5) 
5

$$$$

     RDKit          3D

 48 50  0  0  0  0  0  0  0  0999 V2000
  -11.0310   -2.1200   -3.7050 C   0  0  0  0  0  0  0  0  0  0  0  0
  -12.2050   -2.0780   -4.5310 N   0  0  0  0  0  0  0  0  0  0  0  0
  -13.0700   -1.0050   -4.5310 C   0  0  0  0  0  0  0  0  0  0  0  0
  -12.9860   -0.0510   -3.7660 O   0  0  0  0  0  0  0  0  0  0  0  0
  -14.1500   -1.0850   -5.5680 C   0  0  0  0  0  0  0  0  0  0  0  0
  -13.8260   -1.4170   -6.8750 C   0  0  0  0  0  0  0  0  0  0  0  0
  -14.8670   -1.4740   -7.7960 C   0  0  0  0  0  0  0  0  0  0  0  0
  -14.6610   -1.7490   -9.1290 O   0  0  0  0  0  0  0  0  0  0  0  0
  -13.8290   -0.8950   -9.8160 C   0  0  0  0  0  0  0  0  0  0  0  0
  -12.4980   -1.2820   -9.9690 C   0  0  0  0  0  0  0  0  0  0  0  0
  -11.5960   -0.4390  -10.6260 C   0  0  0  0  0  0  0  0  0  0  0  0
  -12.0200    0.7970  -11.1320 C   0  0  0  0  0  0  0  0  0  0  0  0
  -11.0560    1.6010  -11.7820 N   0  0  0  0  0  0  0  0  0  0  0  0
  -11.0040    1.8200  -13.1530 C   0  0  0  0  0  0  0  0  0  0  0  0
  -11.6330    1.1830  -13.9850 O   0  0  0  0  0  0  0  0  0  0  0  0
  -10.1000    2.8360  -13.4270 N   0  0  0  0  0  0  0  0  0  0  0  0
   -9.6680    3.2770  -14.6950 C   0  0  0  0  0  0  0  0  0  0  0  0
   -8.5540    2.7660  -15.3560 C   0  0  0  0  0  0  0  0  0  0  0  0
   -8.1850    3.2660  -16.6100 C   0  0  0  0  0  0  0  0  0  0  0  0
   -8.9230    4.2870  -17.2120 C   0  0  0  0  0  0  0  0  0  0  0  0
   -8.4010    4.8480  -18.7570 Cl  0  0  0  0  0  0  0  0  0  0  0  0
  -10.0410    4.8220  -16.5650 C   0  0  0  0  0  0  0  0  0  0  0  0
  -10.8550    5.9250  -17.1840 C   0  0  0  0  0  0  0  0  0  0  0  0
  -11.9460    6.2620  -16.4340 F   0  0  0  0  0  0  0  0  0  0  0  0
  -10.1580    7.0840  -17.3370 F   0  0  0  0  0  0  0  0  0  0  0  0
  -11.3500    5.6030  -18.4100 F   0  0  0  0  0  0  0  0  0  0  0  0
  -10.4000    4.3060  -15.3010 C   0  0  0  0  0  0  0  0  0  0  0  0
  -13.3480    1.1910  -10.9170 C   0  0  0  0  0  0  0  0  0  0  0  0
  -13.7700    2.4210  -11.2420 F   0  0  0  0  0  0  0  0  0  0  0  0
  -14.2530    0.3530  -10.2680 C   0  0  0  0  0  0  0  0  0  0  0  0
  -16.1670   -1.1730   -7.4040 C   0  0  0  0  0  0  0  0  0  0  0  0
  -16.3920   -0.8580   -6.0750 C   0  0  0  0  0  0  0  0  0  0  0  0
  -15.4190   -0.8110   -5.1410 N   0  0  0  0  0  0  0  0  0  0  0  0
  -11.3274   -2.1094   -2.6457 H   0  0  0  0  0  0  0  0  0  0  0  0
  -10.4653   -3.0390   -3.9183 H   0  0  0  0  0  0  0  0  0  0  0  0
  -10.4011   -1.2438   -3.9183 H   0  0  0  0  0  0  0  0  0  0  0  0
  -12.3300   -2.7500   -5.2840 H   0  0  0  0  0  0  0  0  0  0  0  0
  -12.7877   -1.6268   -7.1714 H   0  0  0  0  0  0  0  0  0  0  0  0
  -12.1576   -2.2502   -9.5730 H   0  0  0  0  0  0  0  0  0  0  0  0
  -10.5472   -0.7481  -10.7463 H   0  0  0  0  0  0  0  0  0  0  0  0
  -10.1680    1.7030  -11.3140 H   0  0  0  0  0  0  0  0  0  0  0  0
   -9.8780    3.4290  -12.6400 H   0  0  0  0  0  0  0  0  0  0  0  0
   -7.9610    1.9652  -14.8901 H   0  0  0  0  0  0  0  0  0  0  0  0
   -7.3063    2.8512  -17.1256 H   0  0  0  0  0  0  0  0  0  0  0  0
  -11.2750    4.7217  -14.7798 H   0  0  0  0  0  0  0  0  0  0  0  0
  -15.2937    0.6743  -10.1138 H   0  0  0  0  0  0  0  0  0  0  0  0
  -16.9934   -1.1849   -8.1299 H   0  0  0  0  0  0  0  0  0  0  0  0
  -17.4224   -0.6332   -5.7624 H   0  0  0  0  0  0  0  0  0  0  0  0
  1  2  1  0
  2  3  1  0
  3  4  2  0
  3  5  1  0
  5  6  2  0
  6  7  1  0
  7  8  1  0
  8  9  1  0
  9 10  1  0
 10 11  2  0
 11 12  1  0
 12 13  1  0
 13 14  1  0
 14 15  2  0
 14 16  1  0
 16 17  1  0
 17 18  1  0
 18 19  2  0
 19 20  1  0
 20 21  1  0
 20 22  2  0
 22 23  1  0
 23 24  1  0
 23 25  1  0
 23 26  1  0
 22 27  1  0
 12 28  2  0
 28 29  1  0
 28 30  1  0
  7 31  2  0
 31 32  1  0
 32 33  2  0
 33  5  1  0
 30  9  2  0
 27 17  2  0
  1 34  1  0
  1 35  1  0
  1 36  1  0
  2 37  1  0
  6 38  1  0
 10 39  1  0
 11 40  1  0
 13 41  1  0
 16 42  1  0
 18 43  1  0
 19 44  1  0
 27 45  1  0
 30 46  1  0
 31 47  1  0
 32 48  1  0
M  END
>  <meeko>  (6) 
{"is_sidechain": false}

>  <vina_affinity_kcal_mol>  (6) 
-8.645

>  <pose_rank>  (6) 
6

$$$$

     RDKit          3D

 48 50  0  0  0  0  0  0  0  0999 V2000
   -1.2260   -0.0720  -16.3900 C   0  0  0  0  0  0  0  0  0  0  0  0
   -2.3420   -0.1570  -15.4900 N   0  0  0  0  0  0  0  0  0  0  0  0
   -2.8850   -1.3620  -15.0980 C   0  0  0  0  0  0  0  0  0  0  0  0
   -2.5490   -2.4500  -15.5510 O   0  0  0  0  0  0  0  0  0  0  0  0
   -3.9430   -1.2470  -14.0420 C   0  0  0  0  0  0  0  0  0  0  0  0
   -5.2810   -1.3270  -14.3960 C   0  0  0  0  0  0  0  0  0  0  0  0
   -6.2200   -1.2110  -13.3760 C   0  0  0  0  0  0  0  0  0  0  0  0
   -7.5750   -1.2300  -13.6120 O   0  0  0  0  0  0  0  0  0  0  0  0
   -8.1090   -0.1320  -14.2450 C   0  0  0  0  0  0  0  0  0  0  0  0
   -8.7300    0.8290  -13.4490 C   0  0  0  0  0  0  0  0  0  0  0  0
   -9.3240    1.9490  -14.0390 C   0  0  0  0  0  0  0  0  0  0  0  0
   -9.3020    2.1140  -15.4290 C   0  0  0  0  0  0  0  0  0  0  0  0
   -9.9230    3.2660  -15.9600 N   0  0  0  0  0  0  0  0  0  0  0  0
   -9.2640    4.2720  -16.6570 C   0  0  0  0  0  0  0  0  0  0  0  0
   -8.0500    4.4010  -16.7100 O   0  0  0  0  0  0  0  0  0  0  0  0
  -10.1930    5.1210  -17.2400 N   0  0  0  0  0  0  0  0  0  0  0  0
   -9.9370    6.3250  -17.9270 C   0  0  0  0  0  0  0  0  0  0  0  0
   -9.4640    7.4830  -17.3140 C   0  0  0  0  0  0  0  0  0  0  0  0
   -9.2460    8.6420  -18.0660 C   0  0  0  0  0  0  0  0  0  0  0  0
   -9.5040    8.6580  -19.4380 C   0  0  0  0  0  0  0  0  0  0  0  0
   -9.2100   10.1270  -20.2920 Cl  0  0  0  0  0  0  0  0  0  0  0  0
   -9.9870    7.5110  -20.0760 C   0  0  0  0  0  0  0  0  0  0  0  0
  -10.2790    7.4950  -21.5500 C   0  0  0  0  0  0  0  0  0  0  0  0
  -10.7140    6.2770  -21.9900 F   0  0  0  0  0  0  0  0  0  0  0  0
  -11.2540    8.3730  -21.9130 F   0  0  0  0  0  0  0  0  0  0  0  0
   -9.1910    7.7830  -22.3160 F   0  0  0  0  0  0  0  0  0  0  0  0
  -10.2010    6.3500  -19.3030 C   0  0  0  0  0  0  0  0  0  0  0  0
   -8.7220    1.1080  -16.2160 C   0  0  0  0  0  0  0  0  0  0  0  0
   -8.8050    1.1360  -17.5530 F   0  0  0  0  0  0  0  0  0  0  0  0
   -8.1240   -0.0080  -15.6340 C   0  0  0  0  0  0  0  0  0  0  0  0
   -5.8070   -0.9890  -12.0660 C   0  0  0  0  0  0  0  0  0  0  0  0
   -4.4480   -0.9300  -11.8100 C   0  0  0  0  0  0  0  0  0  0  0  0
   -3.5000   -1.0590  -12.7630 N   0  0  0  0  0  0  0  0  0  0  0  0
   -0.2931   -0.0009  -15.8116 H   0  0  0  0  0  0  0  0  0  0  0  0
   -1.1969   -0.9705  -17.0239 H   0  0  0  0  0  0  0  0  0  0  0  0
   -1.3333    0.8206  -17.0239 H   0  0  0  0  0  0  0  0  0  0  0  0
   -2.6420    0.6580  -14.9610 H   0  0  0  0  0  0  0  0  0  0  0  0
   -5.5880   -1.4762  -15.4417 H   0  0  0  0  0  0  0  0  0  0  0  0
   -8.7528    0.7063  -12.3561 H   0  0  0  0  0  0  0  0  0  0  0  0
   -9.8118    2.7055  -13.4067 H   0  0  0  0  0  0  0  0  0  0  0  0
  -10.7710    3.5710  -15.5040 H   0  0  0  0  0  0  0  0  0  0  0  0
  -11.1210    4.7330  -17.3330 H   0  0  0  0  0  0  0  0  0  0  0  0
   -9.2609    7.4859  -16.2329 H   0  0  0  0  0  0  0  0  0  0  0  0
   -8.8678    9.5491  -17.5719 H   0  0  0  0  0  0  0  0  0  0  0  0
  -10.5844    5.4425  -19.7924 H   0  0  0  0  0  0  0  0  0  0  0  0
   -7.6675   -0.7848  -16.2650 H   0  0  0  0  0  0  0  0  0  0  0  0
   -6.5405   -0.8638  -11.2559 H   0  0  0  0  0  0  0  0  0  0  0  0
   -4.1219   -0.7690  -10.7719 H   0  0  0  0  0  0  0  0  0  0  0  0
  1  2  1  0
  2  3  1  0
  3  4  2  0
  3  5  1  0
  5  6  2  0
  6  7  1  0
  7  8  1  0
  8  9  1  0
  9 10  1  0
 10 11  2  0
 11 12  1  0
 12 13  1  0
 13 14  1  0
 14 15  2  0
 14 16  1  0
 16 17  1  0
 17 18  1  0
 18 19  2  0
 19 20  1  0
 20 21  1  0
 20 22  2  0
 22 23  1  0
 23 24  1  0
 23 25  1  0
 23 26  1  0
 22 27  1  0
 12 28  2  0
 28 29  1  0
 28 30  1  0
  7 31  2  0
 31 32  1  0
 32 33  2  0
 33  5  1  0
 30  9  2  0
 27 17  2  0
  1 34  1  0
  1 35  1  0
  1 36  1  0
  2 37  1  0
  6 38  1  0
 10 39  1  0
 11 40  1  0
 13 41  1  0
 16 42  1  0
 18 43  1  0
 19 44  1  0
 27 45  1  0
 30 46  1  0
 31 47  1  0
 32 48  1  0
M  END
>  <meeko>  (7) 
{"is_sidechain": false}

>  <vina_affinity_kcal_mol>  (7) 
-8.602

>  <pose_rank>  (7) 
7

$$$$

     RDKit          3D

 48 50  0  0  0  0  0  0  0  0999 V2000
  -10.5850   -1.2310   -8.3090 C   0  0  0  0  0  0  0  0  0  0  0  0
   -9.3810   -1.1640   -9.0910 N   0  0  0  0  0  0  0  0  0  0  0  0
   -8.8320   -2.2720   -9.7000 C   0  0  0  0  0  0  0  0  0  0  0  0
   -9.2450   -3.4160   -9.5500 O   0  0  0  0  0  0  0  0  0  0  0  0
   -7.6650   -1.9700  -10.5910 C   0  0  0  0  0  0  0  0  0  0  0  0
   -7.8670   -1.7830  -11.9500 C   0  0  0  0  0  0  0  0  0  0  0  0
   -6.7490   -1.5080  -12.7300 C   0  0  0  0  0  0  0  0  0  0  0  0
   -6.8200   -1.3480  -14.0940 O   0  0  0  0  0  0  0  0  0  0  0  0
   -7.5170   -0.2550  -14.5540 C   0  0  0  0  0  0  0  0  0  0  0  0
   -8.0880   -0.3450  -15.8230 C   0  0  0  0  0  0  0  0  0  0  0  0
   -8.7760    0.7470  -16.3590 C   0  0  0  0  0  0  0  0  0  0  0  0
   -8.8980    1.9370  -15.6300 C   0  0  0  0  0  0  0  0  0  0  0  0
   -9.6040    3.0020  -16.2320 N   0  0  0  0  0  0  0  0  0  0  0  0
   -9.0120    4.1310  -16.7850 C   0  0  0  0  0  0  0  0  0  0  0  0
   -7.8430    4.4510  -16.6290 O   0  0  0  0  0  0  0  0  0  0  0  0
   -9.9590    4.8530  -17.4980 N   0  0  0  0  0  0  0  0  0  0  0  0
   -9.7940    6.1140  -18.1040 C   0  0  0  0  0  0  0  0  0  0  0  0
   -9.3790    7.2550  -17.4220 C   0  0  0  0  0  0  0  0  0  0  0  0
   -9.2500    8.4740  -18.0960 C   0  0  0  0  0  0  0  0  0  0  0  0
   -9.5410    8.5660  -19.4580 C   0  0  0  0  0  0  0  0  0  0  0  0
   -9.3580   10.1060  -20.2140 Cl  0  0  0  0  0  0  0  0  0  0  0  0
   -9.9670    7.4370  -20.1640 C   0  0  0  0  0  0  0  0  0  0  0  0
  -10.2930    7.5030  -21.6310 C   0  0  0  0  0  0  0  0  0  0  0  0
   -9.2210    7.8710  -22.3940 F   0  0  0  0  0  0  0  0  0  0  0  0
  -10.7010    6.3100  -22.1430 F   0  0  0  0  0  0  0  0  0  0  0  0
  -11.2670    8.4070  -21.9250 F   0  0  0  0  0  0  0  0  0  0  0  0
  -10.0910    6.2150  -19.4690 C   0  0  0  0  0  0  0  0  0  0  0  0
   -8.2680    2.0250  -14.3800 C   0  0  0  0  0  0  0  0  0  0  0  0
   -8.2210    3.1830  -13.7060 F   0  0  0  0  0  0  0  0  0  0  0  0
   -7.5840    0.9390  -13.8380 C   0  0  0  0  0  0  0  0  0  0  0  0
   -5.4840   -1.4620  -12.1510 C   0  0  0  0  0  0  0  0  0  0  0  0
   -5.3850   -1.6560  -10.7840 C   0  0  0  0  0  0  0  0  0  0  0  0
   -6.4430   -1.9030   -9.9830 N   0  0  0  0  0  0  0  0  0  0  0  0
  -10.3288   -1.2167   -7.2394 H   0  0  0  0  0  0  0  0  0  0  0  0
  -11.2238   -0.3670   -8.5446 H   0  0  0  0  0  0  0  0  0  0  0  0
  -11.1240   -2.1605   -8.5446 H   0  0  0  0  0  0  0  0  0  0  0  0
   -9.0040   -0.2650   -9.3810 H   0  0  0  0  0  0  0  0  0  0  0  0
   -8.8715   -1.8495  -12.3934 H   0  0  0  0  0  0  0  0  0  0  0  0
   -7.9969   -1.2757  -16.4023 H   0  0  0  0  0  0  0  0  0  0  0  0
   -9.2249    0.6716  -17.3604 H   0  0  0  0  0  0  0  0  0  0  0  0
  -10.5520    3.1480  -15.9180 H   0  0  0  0  0  0  0  0  0  0  0  0
  -10.7840    4.3290  -17.7540 H   0  0  0  0  0  0  0  0  0  0  0  0
   -9.1514    7.1974  -16.3474 H   0  0  0  0  0  0  0  0  0  0  0  0
   -8.9164    9.3676  -17.5480 H   0  0  0  0  0  0  0  0  0  0  0  0
  -10.4290    5.3203  -20.0124 H   0  0  0  0  0  0  0  0  0  0  0  0
   -7.1009    1.0231  -12.8533 H   0  0  0  0  0  0  0  0  0  0  0  0
   -4.5885   -1.2768  -12.7623 H   0  0  0  0  0  0  0  0  0  0  0  0
   -4.3870   -1.6060  -10.3241 H   0  0  0  0  0  0  0  0  0  0  0  0
  1  2  1  0
  2  3  1  0
  3  4  2  0
  3  5  1  0
  5  6  2  0
  6  7  1  0
  7  8  1  0
  8  9  1  0
  9 10  1  0
 10 11  2  0
 11 12  1  0
 12 13  1  0
 13 14  1  0
 14 15  2  0
 14 16  1  0
 16 17  1  0
 17 18  1  0
 18 19  2  0
 19 20  1  0
 20 21  1  0
 20 22  2  0
 22 23  1  0
 23 24  1  0
 23 25  1  0
 23 26  1  0
 22 27  1  0
 12 28  2  0
 28 29  1  0
 28 30  1  0
  7 31  2  0
 31 32  1  0
 32 33  2  0
 33  5  1  0
 30  9  2  0
 27 17  2  0
  1 34  1  0
  1 35  1  0
  1 36  1  0
  2 37  1  0
  6 38  1  0
 10 39  1  0
 11 40  1  0
 13 41  1  0
 16 42  1  0
 18 43  1  0
 19 44  1  0
 27 45  1  0
 30 46  1  0
 31 47  1  0
 32 48  1  0
M  END
>  <meeko>  (8) 
{"is_sidechain": false}

>  <vina_affinity_kcal_mol>  (8) 
-8.448

>  <pose_rank>  (8) 
8

$$$$

     RDKit          3D

 48 50  0  0  0  0  0  0  0  0999 V2000
  -18.6640    0.5290   -7.2980 C   0  0  0  0  0  0  0  0  0  0  0  0
  -17.5130   -0.3290   -7.2470 N   0  0  0  0  0  0  0  0  0  0  0  0
  -17.6170   -1.7030   -7.1920 C   0  0  0  0  0  0  0  0  0  0  0  0
  -18.6750   -2.3100   -7.0750 O   0  0  0  0  0  0  0  0  0  0  0  0
  -16.3070   -2.4240   -7.2970 C   0  0  0  0  0  0  0  0  0  0  0  0
  -15.7410   -2.6450   -8.5430 C   0  0  0  0  0  0  0  0  0  0  0  0
  -14.5260   -3.3210   -8.5820 C   0  0  0  0  0  0  0  0  0  0  0  0
  -13.8920   -3.6360   -9.7620 O   0  0  0  0  0  0  0  0  0  0  0  0
  -12.9980   -2.7120  -10.2500 C   0  0  0  0  0  0  0  0  0  0  0  0
  -11.9760   -3.1800  -11.0750 C   0  0  0  0  0  0  0  0  0  0  0  0
  -11.0160   -2.2940  -11.5710 C   0  0  0  0  0  0  0  0  0  0  0  0
  -11.0700   -0.9330  -11.2440 C   0  0  0  0  0  0  0  0  0  0  0  0
  -10.0670   -0.0930  -11.7770 N   0  0  0  0  0  0  0  0  0  0  0  0
  -10.0450    0.3850  -13.0820 C   0  0  0  0  0  0  0  0  0  0  0  0
  -10.7540   -0.0290  -13.9870 O   0  0  0  0  0  0  0  0  0  0  0  0
   -9.0690    1.3630  -13.2040 N   0  0  0  0  0  0  0  0  0  0  0  0
   -8.6470    2.0080  -14.3840 C   0  0  0  0  0  0  0  0  0  0  0  0
   -7.4940    1.6670  -15.0860 C   0  0  0  0  0  0  0  0  0  0  0  0
   -7.1390    2.3640  -16.2450 C   0  0  0  0  0  0  0  0  0  0  0  0
   -7.9310    3.4150  -16.7110 C   0  0  0  0  0  0  0  0  0  0  0  0
   -7.4220    4.2250  -18.1470 Cl  0  0  0  0  0  0  0  0  0  0  0  0
   -9.0900    3.7830  -16.0210 C   0  0  0  0  0  0  0  0  0  0  0  0
   -9.9620    4.9120  -16.4940 C   0  0  0  0  0  0  0  0  0  0  0  0
  -11.0260    5.1410  -15.6670 F   0  0  0  0  0  0  0  0  0  0  0  0
   -9.3060    6.1030  -16.5650 F   0  0  0  0  0  0  0  0  0  0  0  0
  -10.5060    4.6930  -17.7220 F   0  0  0  0  0  0  0  0  0  0  0  0
   -9.4330    3.0680  -14.8530 C   0  0  0  0  0  0  0  0  0  0  0  0
  -12.0720   -0.4930  -10.3680 C   0  0  0  0  0  0  0  0  0  0  0  0
  -12.0840    0.7630   -9.9000 F   0  0  0  0  0  0  0  0  0  0  0  0
  -13.0350   -1.3700   -9.8730 C   0  0  0  0  0  0  0  0  0  0  0  0
  -13.9400   -3.7780   -7.4050 C   0  0  0  0  0  0  0  0  0  0  0  0
  -14.5790   -3.5040   -6.2090 C   0  0  0  0  0  0  0  0  0  0  0  0
  -15.7470   -2.8320   -6.1190 N   0  0  0  0  0  0  0  0  0  0  0  0
  -18.9873    0.7700   -6.2746 H   0  0  0  0  0  0  0  0  0  0  0  0
  -18.4062    1.4571   -7.8292 H   0  0  0  0  0  0  0  0  0  0  0  0
  -19.4798    0.0169   -7.8292 H   0  0  0  0  0  0  0  0  0  0  0  0
  -16.5860    0.0380   -7.4470 H   0  0  0  0  0  0  0  0  0  0  0  0
  -16.2331   -2.2995   -9.4641 H   0  0  0  0  0  0  0  0  0  0  0  0
  -11.9254   -4.2475  -11.3356 H   0  0  0  0  0  0  0  0  0  0  0  0
  -10.2125   -2.6678  -12.2226 H   0  0  0  0  0  0  0  0  0  0  0  0
   -9.1560   -0.1510  -11.3450 H   0  0  0  0  0  0  0  0  0  0  0  0
   -8.7700    1.7730  -12.3300 H   0  0  0  0  0  0  0  0  0  0  0  0
   -6.8585    0.8442  -14.7266 H   0  0  0  0  0  0  0  0  0  0  0  0
   -6.2285    2.0820  -16.7940 H   0  0  0  0  0  0  0  0  0  0  0  0
  -10.3397    3.3503  -14.2978 H   0  0  0  0  0  0  0  0  0  0  0  0
  -13.8177   -1.0068   -9.1907 H   0  0  0  0  0  0  0  0  0  0  0  0
  -12.9953   -4.3412   -7.4253 H   0  0  0  0  0  0  0  0  0  0  0  0
  -14.1088   -3.8535   -5.2780 H   0  0  0  0  0  0  0  0  0  0  0  0
  1  2  1  0
  2  3  1  0
  3  4  2  0
  3  5  1  0
  5  6  2  0
  6  7  1  0
  7  8  1  0
  8  9  1  0
  9 10  1  0
 10 11  2  0
 11 12  1  0
 12 13  1  0
 13 14  1  0
 14 15  2  0
 14 16  1  0
 16 17  1  0
 17 18  1  0
 18 19  2  0
 19 20  1  0
 20 21  1  0
 20 22  2  0
 22 23  1  0
 23 24  1  0
 23 25  1  0
 23 26  1  0
 22 27  1  0
 12 28  2  0
 28 29  1  0
 28 30  1  0
  7 31  2  0
 31 32  1  0
 32 33  2  0
 33  5  1  0
 30  9  2  0
 27 17  2  0
  1 34  1  0
  1 35  1  0
  1 36  1  0
  2 37  1  0
  6 38  1  0
 10 39  1  0
 11 40  1  0
 13 41  1  0
 16 42  1  0
 18 43  1  0
 19 44  1  0
 27 45  1  0
 30 46  1  0
 31 47  1  0
 32 48  1  0
M  END
>  <meeko>  (9) 
{"is_sidechain": false}

>  <vina_affinity_kcal_mol>  (9) 
-8.446

>  <pose_rank>  (9) 
9

$$$$

     RDKit          3D

 48 50  0  0  0  0  0  0  0  0999 V2000
   -1.1730   -8.2650  -18.5270 C   0  0  0  0  0  0  0  0  0  0  0  0
   -2.0930   -7.5280  -17.7060 N   0  0  0  0  0  0  0  0  0  0  0  0
   -3.4360   -7.4350  -18.0010 C   0  0  0  0  0  0  0  0  0  0  0  0
   -3.9490   -7.8720  -19.0250 O   0  0  0  0  0  0  0  0  0  0  0  0
   -4.2520   -6.7500  -16.9470 C   0  0  0  0  0  0  0  0  0  0  0  0
   -3.7040   -5.7000  -16.2270 C   0  0  0  0  0  0  0  0  0  0  0  0
   -4.5050   -5.1020  -15.2590 C   0  0  0  0  0  0  0  0  0  0  0  0
   -4.0550   -4.0820  -14.4530 O   0  0  0  0  0  0  0  0  0  0  0  0
   -4.4980   -2.8150  -14.7520 C   0  0  0  0  0  0  0  0  0  0  0  0
   -5.1050   -2.0880  -13.7290 C   0  0  0  0  0  0  0  0  0  0  0  0
   -5.6090   -0.8090  -13.9830 C   0  0  0  0  0  0  0  0  0  0  0  0
   -5.5090   -0.2490  -15.2630 C   0  0  0  0  0  0  0  0  0  0  0  0
   -6.0410    1.0470  -15.4520 N   0  0  0  0  0  0  0  0  0  0  0  0
   -7.3980    1.3480  -15.4850 C   0  0  0  0  0  0  0  0  0  0  0  0
   -8.2920    0.5200  -15.5760 O   0  0  0  0  0  0  0  0  0  0  0  0
   -7.5710    2.7230  -15.4430 N   0  0  0  0  0  0  0  0  0  0  0  0
   -8.7780    3.4380  -15.5770 C   0  0  0  0  0  0  0  0  0  0  0  0
   -9.8240    3.3740  -14.6590 C   0  0  0  0  0  0  0  0  0  0  0  0
  -10.9960    4.1080  -14.8700 C   0  0  0  0  0  0  0  0  0  0  0  0
  -11.1380    4.9080  -16.0060 C   0  0  0  0  0  0  0  0  0  0  0  0
  -12.6150    5.7780  -16.1930 Cl  0  0  0  0  0  0  0  0  0  0  0  0
  -10.1060    4.9820  -16.9460 C   0  0  0  0  0  0  0  0  0  0  0  0
  -10.2280    5.8310  -18.1820 C   0  0  0  0  0  0  0  0  0  0  0  0
   -9.2270    5.6010  -19.0830 F   0  0  0  0  0  0  0  0  0  0  0  0
  -11.3820    5.6130  -18.8700 F   0  0  0  0  0  0  0  0  0  0  0  0
  -10.1750    7.1660  -17.9230 F   0  0  0  0  0  0  0  0  0  0  0  0
   -8.9300    4.2370  -16.7170 C   0  0  0  0  0  0  0  0  0  0  0  0
   -4.9460   -1.0180  -16.2910 C   0  0  0  0  0  0  0  0  0  0  0  0
   -4.9610   -0.5970  -17.5640 F   0  0  0  0  0  0  0  0  0  0  0  0
   -4.4380   -2.2920  -16.0430 C   0  0  0  0  0  0  0  0  0  0  0  0
   -5.7900   -5.5810  -15.0190 C   0  0  0  0  0  0  0  0  0  0  0  0
   -6.2500   -6.6310  -15.7940 C   0  0  0  0  0  0  0  0  0  0  0  0
   -5.5190   -7.2280  -16.7590 N   0  0  0  0  0  0  0  0  0  0  0  0
   -0.4756   -8.8237  -17.8855 H   0  0  0  0  0  0  0  0  0  0  0  0
   -1.7310   -8.9688  -19.1621 H   0  0  0  0  0  0  0  0  0  0  0  0
   -0.6079   -7.5669  -19.1621 H   0  0  0  0  0  0  0  0  0  0  0  0
   -1.8190   -7.2130  -16.7780 H   0  0  0  0  0  0  0  0  0  0  0  0
   -2.6769   -5.3533  -16.4134 H   0  0  0  0  0  0  0  0  0  0  0  0
   -5.1874   -2.5211  -12.7212 H   0  0  0  0  0  0  0  0  0  0  0  0
   -6.0870   -0.2389  -13.1727 H   0  0  0  0  0  0  0  0  0  0  0  0
   -5.4630    1.7010  -15.9570 H   0  0  0  0  0  0  0  0  0  0  0  0
   -6.7730    3.2390  -15.0990 H   0  0  0  0  0  0  0  0  0  0  0  0
   -9.7278    2.7428  -13.7633 H   0  0  0  0  0  0  0  0  0  0  0  0
  -11.8127    4.0547  -14.1350 H   0  0  0  0  0  0  0  0  0  0  0  0
   -8.1127    4.2849  -17.4517 H   0  0  0  0  0  0  0  0  0  0  0  0
   -3.9933   -2.8801  -16.8593 H   0  0  0  0  0  0  0  0  0  0  0  0
   -6.4218   -5.1373  -14.2354 H   0  0  0  0  0  0  0  0  0  0  0  0
   -7.2702   -7.0005  -15.6133 H   0  0  0  0  0  0  0  0  0  0  0  0
  1  2  1  0
  2  3  1  0
  3  4  2  0
  3  5  1  0
  5  6  2  0
  6  7  1  0
  7  8  1  0
  8  9  1  0
  9 10  1  0
 10 11  2  0
 11 12  1  0
 12 13  1  0
 13 14  1  0
 14 15  2  0
 14 16  1  0
 16 17  1  0
 17 18  1  0
 18 19  2  0
 19 20  1  0
 20 21  1  0
 20 22  2  0
 22 23  1  0
 23 24  1  0
 23 25  1  0
 23 26  1  0
 22 27  1  0
 12 28  2  0
 28 29  1  0
 28 30  1  0
  7 31  2  0
 31 32  1  0
 32 33  2  0
 33  5  1  0
 30  9  2  0
 27 17  2  0
  1 34  1  0
  1 35  1  0
  1 36  1  0
  2 37  1  0
  6 38  1  0
 10 39  1  0
 11 40  1  0
 13 41  1  0
 16 42  1  0
 18 43  1  0
 19 44  1  0
 27 45  1  0
 30 46  1  0
 31 47  1  0
 32 48  1  0
M  END
>  <meeko>  (10) 
{"is_sidechain": false}

>  <vina_affinity_kcal_mol>  (10) 
-8.13

>  <pose_rank>  (10) 
10

$$$$
