
     RDKit          3D

 25 26  0  0  0  0  0  0  0  0999 V2000
    3.5998    0.7786    0.8618 C   0  0  0  0  0  0  0  0  0  0  0  0
    2.4755   -0.0338    0.2948 C   0  0  0  0  0  0  0  0  0  0  0  0
    2.8054   -1.3063   -0.2942 C   0  0  0  0  0  0  0  0  0  0  0  0
    1.8441   -2.0867   -0.7950 C   0  0  0  0  0  0  0  0  0  0  0  0
    0.4156   -1.6601   -0.7787 C   0  0  0  0  0  0  0  0  0  0  0  0
   -0.3864   -2.4243   -1.3143 O   0  0  0  0  0  0  0  0  0  0  0  0
    0.1416   -0.4060   -0.1843 N   0  0  0  0  0  0  0  0  0  0  0  0
   -1.2227    0.0804   -0.1232 C   0  0  0  0  0  0  0  0  0  0  0  0
   -2.3197   -0.7929   -0.0581 C   0  0  0  0  0  0  0  0  0  0  0  0
   -3.6328   -0.3126    0.0181 C   0  0  0  0  0  0  0  0  0  0  0  0
   -3.8784    1.0556    0.0305 C   0  0  0  0  0  0  0  0  0  0  0  0
   -2.8110    1.9434   -0.0343 C   0  0  0  0  0  0  0  0  0  0  0  0
   -1.4988    1.4606   -0.1087 C   0  0  0  0  0  0  0  0  0  0  0  0
    1.1931    0.3606    0.3289 C   0  0  0  0  0  0  0  0  0  0  0  0
    4.1138    0.2247    1.6547 H   0  0  0  0  0  0  0  0  0  0  0  0
    3.2453    1.7213    1.2926 H   0  0  0  0  0  0  0  0  0  0  0  0
    4.3281    1.0246    0.0816 H   0  0  0  0  0  0  0  0  0  0  0  0
    3.8422   -1.6265   -0.3201 H   0  0  0  0  0  0  0  0  0  0  0  0
    2.0512   -3.0491   -1.2453 H   0  0  0  0  0  0  0  0  0  0  0  0
   -2.1835   -1.8707   -0.0315 H   0  0  0  0  0  0  0  0  0  0  0  0
   -4.4601   -1.0160    0.0705 H   0  0  0  0  0  0  0  0  0  0  0  0
   -4.8980    1.4270    0.0858 H   0  0  0  0  0  0  0  0  0  0  0  0
   -2.9954    3.0146   -0.0385 H   0  0  0  0  0  0  0  0  0  0  0  0
   -0.7052    2.1957   -0.2032 H   0  0  0  0  0  0  0  0  0  0  0  0
    0.9363    1.2978    0.8102 H   0  0  0  0  0  0  0  0  0  0  0  0
  1  2  1  0
  2  3  1  0
  3  4  2  0
  4  5  1  0
  5  6  2  0
  5  7  1  0
  7  8  1  0
  8  9  2  0
  9 10  1  0
 10 11  2  0
 11 12  1  0
 12 13  2  0
  7 14  1  0
 14  2  2  0
 13  8  1  0
  1 15  1  0
  1 16  1  0
  1 17  1  0
  3 18  1  0
  4 19  1  0
  9 20  1  0
 10 21  1  0
 11 22  1  0
 12 23  1  0
 13 24  1  0
 14 25  1  0
M  END
$$$$
