
     RDKit          3D

 25 26  0  0  0  0  0  0  0  0999 V2000
  -38.6740  157.9270    2.9710 C   0  0  0  0  0  0  0  0  0  0  0  0
  -39.6410  158.5930    2.0400 C   0  0  0  0  0  0  0  0  0  0  0  0
  -41.0140  158.6880    2.4620 C   0  0  0  0  0  0  0  0  0  0  0  0
  -41.9190  159.2920    1.6860 C   0  0  0  0  0  0  0  0  0  0  0  0
  -41.5410  159.8630    0.3610 C   0  0  0  0  0  0  0  0  0  0  0  0
  -42.4560  160.3490   -0.3020 O   0  0  0  0  0  0  0  0  0  0  0  0
  -40.1800  159.7510   -0.0060 N   0  0  0  0  0  0  0  0  0  0  0  0
  -39.7290  160.2860   -1.2760 C   0  0  0  0  0  0  0  0  0  0  0  0
  -39.6970  161.6650   -1.5320 C   0  0  0  0  0  0  0  0  0  0  0  0
  -39.2450  162.1720   -2.7560 C   0  0  0  0  0  0  0  0  0  0  0  0
  -38.8130  161.3060   -3.7550 C   0  0  0  0  0  0  0  0  0  0  0  0
  -38.8340  159.9350   -3.5290 C   0  0  0  0  0  0  0  0  0  0  0  0
  -39.2860  159.4310   -2.3040 C   0  0  0  0  0  0  0  0  0  0  0  0
  -39.2810  159.1130    0.8550 C   0  0  0  0  0  0  0  0  0  0  0  0
  -38.9680  158.1295    4.0114 H   0  0  0  0  0  0  0  0  0  0  0  0
  -38.6815  156.8416    2.7925 H   0  0  0  0  0  0  0  0  0  0  0  0
  -37.6626  158.3210    2.7925 H   0  0  0  0  0  0  0  0  0  0  0  0
  -41.3199  158.2611    3.4285 H   0  0  0  0  0  0  0  0  0  0  0  0
  -42.9608  159.3694    2.0305 H   0  0  0  0  0  0  0  0  0  0  0  0
  -40.0349  162.3640   -0.7528 H   0  0  0  0  0  0  0  0  0  0  0  0
  -39.2314  163.2583   -2.9282 H   0  0  0  0  0  0  0  0  0  0  0  0
  -38.4573  161.7035   -4.7170 H   0  0  0  0  0  0  0  0  0  0  0  0
  -38.4945  159.2442   -4.3148 H   0  0  0  0  0  0  0  0  0  0  0  0
  -39.2955  158.3433   -2.1404 H   0  0  0  0  0  0  0  0  0  0  0  0
  -38.2281  159.0333    0.5467 H   0  0  0  0  0  0  0  0  0  0  0  0
  1  2  1  0
  2  3  1  0
  3  4  2  0
  4  5  1  0
  5  6  2  0
  5  7  1  0
  7  8  1  0
  8  9  2  0
  9 10  1  0
 10 11  2  0
 11 12  1  0
 12 13  2  0
  7 14  1  0
 14  2  2  0
 13  8  1  0
  1 15  1  0
  1 16  1  0
  1 17  1  0
  3 18  1  0
  4 19  1  0
  9 20  1  0
 10 21  1  0
 11 22  1  0
 12 23  1  0
 13 24  1  0
 14 25  1  0
M  END
>  <meeko>  (1) 
{"is_sidechain": false}

>  <vina_affinity_kcal_mol>  (1) 
-7.934

>  <pose_rank>  (1) 
1

$$$$

     RDKit          3D

 25 26  0  0  0  0  0  0  0  0999 V2000
  -38.8630  164.6360   -3.7580 C   0  0  0  0  0  0  0  0  0  0  0  0
  -38.9460  163.1540   -3.5500 C   0  0  0  0  0  0  0  0  0  0  0  0
  -38.6120  162.3060   -4.6650 C   0  0  0  0  0  0  0  0  0  0  0  0
  -38.6450  160.9760   -4.5350 C   0  0  0  0  0  0  0  0  0  0  0  0
  -39.0450  160.3360   -3.2500 C   0  0  0  0  0  0  0  0  0  0  0  0
  -39.0970  159.1070   -3.2480 O   0  0  0  0  0  0  0  0  0  0  0  0
  -39.3570  161.2100   -2.1830 N   0  0  0  0  0  0  0  0  0  0  0  0
  -39.7500  160.6670   -0.8970 C   0  0  0  0  0  0  0  0  0  0  0  0
  -41.0950  160.4410   -0.5660 C   0  0  0  0  0  0  0  0  0  0  0  0
  -41.4620  159.8990    0.6720 C   0  0  0  0  0  0  0  0  0  0  0  0
  -40.4880  159.5720    1.6090 C   0  0  0  0  0  0  0  0  0  0  0  0
  -39.1490  159.7860    1.3080 C   0  0  0  0  0  0  0  0  0  0  0  0
  -38.7840  160.3260    0.0700 C   0  0  0  0  0  0  0  0  0  0  0  0
  -39.2970  162.5940   -2.3810 C   0  0  0  0  0  0  0  0  0  0  0  0
  -38.8346  165.1422   -2.7818 H   0  0  0  0  0  0  0  0  0  0  0  0
  -37.9500  164.8765   -4.3224 H   0  0  0  0  0  0  0  0  0  0  0  0
  -39.7435  164.9769   -4.3224 H   0  0  0  0  0  0  0  0  0  0  0  0
  -38.3283  162.7549   -5.6283 H   0  0  0  0  0  0  0  0  0  0  0  0
  -38.3720  160.3426   -5.3919 H   0  0  0  0  0  0  0  0  0  0  0  0
  -41.8783  160.6952   -1.2952 H   0  0  0  0  0  0  0  0  0  0  0  0
  -42.5241  159.7314    0.9039 H   0  0  0  0  0  0  0  0  0  0  0  0
  -40.7759  159.1468    2.5818 H   0  0  0  0  0  0  0  0  0  0  0  0
  -38.3735  159.5302    2.0450 H   0  0  0  0  0  0  0  0  0  0  0  0
  -37.7191  160.4879   -0.1532 H   0  0  0  0  0  0  0  0  0  0  0  0
  -39.5495  163.2549   -1.5387 H   0  0  0  0  0  0  0  0  0  0  0  0
  1  2  1  0
  2  3  1  0
  3  4  2  0
  4  5  1  0
  5  6  2  0
  5  7  1  0
  7  8  1  0
  8  9  2  0
  9 10  1  0
 10 11  2  0
 11 12  1  0
 12 13  2  0
  7 14  1  0
 14  2  2  0
 13  8  1  0
  1 15  1  0
  1 16  1  0
  1 17  1  0
  3 18  1  0
  4 19  1  0
  9 20  1  0
 10 21  1  0
 11 22  1  0
 12 23  1  0
 13 24  1  0
 14 25  1  0
M  END
>  <meeko>  (2) 
{"is_sidechain": false}

>  <vina_affinity_kcal_mol>  (2) 
-7.793

>  <pose_rank>  (2) 
2

$$$$

     RDKit          3D

 25 26  0  0  0  0  0  0  0  0999 V2000
  -38.0700  162.9310   -8.0310 C   0  0  0  0  0  0  0  0  0  0  0  0
  -38.2470  163.2930   -6.5880 C   0  0  0  0  0  0  0  0  0  0  0  0
  -38.1720  164.6880   -6.2370 C   0  0  0  0  0  0  0  0  0  0  0  0
  -38.3450  165.0760   -4.9700 C   0  0  0  0  0  0  0  0  0  0  0  0
  -38.5980  164.0840   -3.8870 C   0  0  0  0  0  0  0  0  0  0  0  0
  -38.6880  164.5350   -2.7460 O   0  0  0  0  0  0  0  0  0  0  0  0
  -38.6700  162.7270   -4.2820 N   0  0  0  0  0  0  0  0  0  0  0  0
  -38.9190  161.6990   -3.2890 C   0  0  0  0  0  0  0  0  0  0  0  0
  -39.4350  162.0030   -2.0200 C   0  0  0  0  0  0  0  0  0  0  0  0
  -39.6880  161.0010   -1.0750 C   0  0  0  0  0  0  0  0  0  0  0  0
  -39.4290  159.6690   -1.3810 C   0  0  0  0  0  0  0  0  0  0  0  0
  -38.9180  159.3400   -2.6290 C   0  0  0  0  0  0  0  0  0  0  0  0
  -38.6660  160.3430   -3.5730 C   0  0  0  0  0  0  0  0  0  0  0  0
  -38.4870  162.3870   -5.6260 C   0  0  0  0  0  0  0  0  0  0  0  0
  -37.5879  161.9451   -8.1052 H   0  0  0  0  0  0  0  0  0  0  0  0
  -39.0529  162.8966   -8.5236 H   0  0  0  0  0  0  0  0  0  0  0  0
  -37.4392  163.6856   -8.5236 H   0  0  0  0  0  0  0  0  0  0  0  0
  -37.9712  165.4380   -7.0162 H   0  0  0  0  0  0  0  0  0  0  0  0
  -38.2999  166.1467   -4.7220 H   0  0  0  0  0  0  0  0  0  0  0  0
  -39.6454  163.0514   -1.7619 H   0  0  0  0  0  0  0  0  0  0  0  0
  -40.0928  161.2681   -0.0877 H   0  0  0  0  0  0  0  0  0  0  0  0
  -39.6278  158.8817   -0.6390 H   0  0  0  0  0  0  0  0  0  0  0  0
  -38.7105  158.2886   -2.8770 H   0  0  0  0  0  0  0  0  0  0  0  0
  -38.2617  160.0658   -4.5577 H   0  0  0  0  0  0  0  0  0  0  0  0
  -38.5423  161.3255   -5.9092 H   0  0  0  0  0  0  0  0  0  0  0  0
  1  2  1  0
  2  3  1  0
  3  4  2  0
  4  5  1  0
  5  6  2  0
  5  7  1  0
  7  8  1  0
  8  9  2  0
  9 10  1  0
 10 11  2  0
 11 12  1  0
 12 13  2  0
  7 14  1  0
 14  2  2  0
 13  8  1  0
  1 15  1  0
  1 16  1  0
  1 17  1  0
  3 18  1  0
  4 19  1  0
  9 20  1  0
 10 21  1  0
 11 22  1  0
 12 23  1  0
 13 24  1  0
 14 25  1  0
M  END
>  <meeko>  (3) 
{"is_sidechain": false}

>  <vina_affinity_kcal_mol>  (3) 
-7.544

>  <pose_rank>  (3) 
3

$$$$

     RDKit          3D

 25 26  0  0  0  0  0  0  0  0999 V2000
  -39.1710  157.7880   -2.0340 C   0  0  0  0  0  0  0  0  0  0  0  0
  -39.1280  159.2700   -1.8150 C   0  0  0  0  0  0  0  0  0  0  0  0
  -39.2480  159.7460   -0.4620 C   0  0  0  0  0  0  0  0  0  0  0  0
  -39.1930  161.0550   -0.1990 C   0  0  0  0  0  0  0  0  0  0  0  0
  -39.0280  162.0550   -1.2930 C   0  0  0  0  0  0  0  0  0  0  0  0
  -39.0450  163.2380   -0.9550 O   0  0  0  0  0  0  0  0  0  0  0  0
  -38.9080  161.5380   -2.6040 N   0  0  0  0  0  0  0  0  0  0  0  0
  -38.7400  162.4440   -3.7240 C   0  0  0  0  0  0  0  0  0  0  0  0
  -38.9180  163.8300   -3.5910 C   0  0  0  0  0  0  0  0  0  0  0  0
  -38.7350  164.6980   -4.6740 C   0  0  0  0  0  0  0  0  0  0  0  0
  -38.3710  164.1960   -5.9190 C   0  0  0  0  0  0  0  0  0  0  0  0
  -38.1890  162.8280   -6.0790 C   0  0  0  0  0  0  0  0  0  0  0  0
  -38.3710  161.9620   -4.9940 C   0  0  0  0  0  0  0  0  0  0  0  0
  -38.9670  160.1560   -2.8110 C   0  0  0  0  0  0  0  0  0  0  0  0
  -39.1859  157.2739   -1.0616 H   0  0  0  0  0  0  0  0  0  0  0  0
  -40.0771  157.5272   -2.6006 H   0  0  0  0  0  0  0  0  0  0  0  0
  -38.2816  157.4751   -2.6006 H   0  0  0  0  0  0  0  0  0  0  0  0
  -39.3858  159.0283    0.3601 H   0  0  0  0  0  0  0  0  0  0  0  0
  -39.2708  161.4009    0.8423 H   0  0  0  0  0  0  0  0  0  0  0  0
  -39.2078  164.2434   -2.6137 H   0  0  0  0  0  0  0  0  0  0  0  0
  -38.8795  165.7802   -4.5399 H   0  0  0  0  0  0  0  0  0  0  0  0
  -38.2283  164.8772   -6.7708 H   0  0  0  0  0  0  0  0  0  0  0  0
  -37.9011  162.4241   -7.0608 H   0  0  0  0  0  0  0  0  0  0  0  0
  -38.2224  160.8815   -5.1371 H   0  0  0  0  0  0  0  0  0  0  0  0
  -38.8772  159.7766   -3.8396 H   0  0  0  0  0  0  0  0  0  0  0  0
  1  2  1  0
  2  3  1  0
  3  4  2  0
  4  5  1  0
  5  6  2  0
  5  7  1  0
  7  8  1  0
  8  9  2  0
  9 10  1  0
 10 11  2  0
 11 12  1  0
 12 13  2  0
  7 14  1  0
 14  2  2  0
 13  8  1  0
  1 15  1  0
  1 16  1  0
  1 17  1  0
  3 18  1  0
  4 19  1  0
  9 20  1  0
 10 21  1  0
 11 22  1  0
 12 23  1  0
 13 24  1  0
 14 25  1  0
M  END
>  <meeko>  (4) 
{"is_sidechain": false}

>  <vina_affinity_kcal_mol>  (4) 
-7.343

>  <pose_rank>  (4) 
4

$$$$

     RDKit          3D

 25 26  0  0  0  0  0  0  0  0999 V2000
  -42.4260  160.6130    0.6720 C   0  0  0  0  0  0  0  0  0  0  0  0
  -41.1730  160.2670   -0.0750 C   0  0  0  0  0  0  0  0  0  0  0  0
  -40.4100  159.1390    0.3920 C   0  0  0  0  0  0  0  0  0  0  0  0
  -39.2970  158.7670   -0.2450 C   0  0  0  0  0  0  0  0  0  0  0  0
  -38.8040  159.5130   -1.4380 C   0  0  0  0  0  0  0  0  0  0  0  0
  -37.7410  159.1260   -1.9210 O   0  0  0  0  0  0  0  0  0  0  0  0
  -39.5910  160.6090   -1.8620 N   0  0  0  0  0  0  0  0  0  0  0  0
  -39.1840  161.3840   -3.0180 C   0  0  0  0  0  0  0  0  0  0  0  0
  -38.9380  160.7870   -4.2640 C   0  0  0  0  0  0  0  0  0  0  0  0
  -38.5620  161.5470   -5.3780 C   0  0  0  0  0  0  0  0  0  0  0  0
  -38.4230  162.9260   -5.2690 C   0  0  0  0  0  0  0  0  0  0  0  0
  -38.6590  163.5440   -4.0480 C   0  0  0  0  0  0  0  0  0  0  0  0
  -39.0360  162.7820   -2.9360 C   0  0  0  0  0  0  0  0  0  0  0  0
  -40.7510  160.9440   -1.1550 C   0  0  0  0  0  0  0  0  0  0  0  0
  -42.2343  160.5601    1.7539 H   0  0  0  0  0  0  0  0  0  0  0  0
  -42.7424  161.6321    0.4051 H   0  0  0  0  0  0  0  0  0  0  0  0
  -43.2206  159.9007    0.4051 H   0  0  0  0  0  0  0  0  0  0  0  0
  -40.7457  158.5806    1.2783 H   0  0  0  0  0  0  0  0  0  0  0  0
  -38.7336  157.8943    0.1170 H   0  0  0  0  0  0  0  0  0  0  0  0
  -39.0430  159.6970   -4.3677 H   0  0  0  0  0  0  0  0  0  0  0  0
  -38.3760  161.0516   -6.3424 H   0  0  0  0  0  0  0  0  0  0  0  0
  -38.1280  163.5236   -6.1441 H   0  0  0  0  0  0  0  0  0  0  0  0
  -38.5495  164.6345   -3.9545 H   0  0  0  0  0  0  0  0  0  0  0  0
  -39.2209  163.2867   -1.9763 H   0  0  0  0  0  0  0  0  0  0  0  0
  -41.3454  161.8027   -1.5003 H   0  0  0  0  0  0  0  0  0  0  0  0
  1  2  1  0
  2  3  1  0
  3  4  2  0
  4  5  1  0
  5  6  2  0
  5  7  1  0
  7  8  1  0
  8  9  2  0
  9 10  1  0
 10 11  2  0
 11 12  1  0
 12 13  2  0
  7 14  1  0
 14  2  2  0
 13  8  1  0
  1 15  1  0
  1 16  1  0
  1 17  1  0
  3 18  1  0
  4 19  1  0
  9 20  1  0
 10 21  1  0
 11 22  1  0
 12 23  1  0
 13 24  1  0
 14 25  1  0
M  END
>  <meeko>  (5) 
{"is_sidechain": false}

>  <vina_affinity_kcal_mol>  (5) 
-7.291

>  <pose_rank>  (5) 
5

$$$$

     RDKit          3D

 25 26  0  0  0  0  0  0  0  0999 V2000
  -42.3950  160.6190    0.6250 C   0  0  0  0  0  0  0  0  0  0  0  0
  -41.1330  160.2990   -0.1170 C   0  0  0  0  0  0  0  0  0  0  0  0
  -40.3400  159.1960    0.3620 C   0  0  0  0  0  0  0  0  0  0  0  0
  -39.2170  158.8470   -0.2710 C   0  0  0  0  0  0  0  0  0  0  0  0
  -38.7420  159.5960   -1.4700 C   0  0  0  0  0  0  0  0  0  0  0  0
  -37.6690  159.2320   -1.9480 O   0  0  0  0  0  0  0  0  0  0  0  0
  -39.5570  160.6670   -1.9050 N   0  0  0  0  0  0  0  0  0  0  0  0
  -39.1690  161.4420   -3.0670 C   0  0  0  0  0  0  0  0  0  0  0  0
  -38.9960  162.8340   -3.0080 C   0  0  0  0  0  0  0  0  0  0  0  0
  -38.6030  163.5710   -4.1320 C   0  0  0  0  0  0  0  0  0  0  0  0
  -38.3760  162.9290   -5.3450 C   0  0  0  0  0  0  0  0  0  0  0  0
  -38.5410  161.5530   -5.4320 C   0  0  0  0  0  0  0  0  0  0  0  0
  -38.9320  160.8180   -4.3070 C   0  0  0  0  0  0  0  0  0  0  0  0
  -40.7260  160.9770   -1.2020 C   0  0  0  0  0  0  0  0  0  0  0  0
  -42.2060  160.5711    1.7076 H   0  0  0  0  0  0  0  0  0  0  0  0
  -42.7319  161.6310    0.3560 H   0  0  0  0  0  0  0  0  0  0  0  0
  -43.1734  159.8898    0.3560 H   0  0  0  0  0  0  0  0  0  0  0  0
  -40.6611  158.6381    1.2540 H   0  0  0  0  0  0  0  0  0  0  0  0
  -38.6320  157.9919    0.0986 H   0  0  0  0  0  0  0  0  0  0  0  0
  -39.1732  163.3577   -2.0570 H   0  0  0  0  0  0  0  0  0  0  0  0
  -38.4734  164.6607   -4.0555 H   0  0  0  0  0  0  0  0  0  0  0  0
  -38.0681  163.5071   -6.2287 H   0  0  0  0  0  0  0  0  0  0  0  0
  -38.3638  161.0390   -6.3882 H   0  0  0  0  0  0  0  0  0  0  0  0
  -39.0570  159.7285   -4.3933 H   0  0  0  0  0  0  0  0  0  0  0  0
  -41.3418  161.8172   -1.5554 H   0  0  0  0  0  0  0  0  0  0  0  0
  1  2  1  0
  2  3  1  0
  3  4  2  0
  4  5  1  0
  5  6  2  0
  5  7  1  0
  7  8  1  0
  8  9  2  0
  9 10  1  0
 10 11  2  0
 11 12  1  0
 12 13  2  0
  7 14  1  0
 14  2  2  0
 13  8  1  0
  1 15  1  0
  1 16  1  0
  1 17  1  0
  3 18  1  0
  4 19  1  0
  9 20  1  0
 10 21  1  0
 11 22  1  0
 12 23  1  0
 13 24  1  0
 14 25  1  0
M  END
>  <meeko>  (6) 
{"is_sidechain": false}

>  <vina_affinity_kcal_mol>  (6) 
-7.283

>  <pose_rank>  (6) 
6

$$$$

     RDKit          3D

 25 26  0  0  0  0  0  0  0  0999 V2000
  -38.7110  161.3280   -5.7440 C   0  0  0  0  0  0  0  0  0  0  0  0
  -38.7840  161.8720   -4.3500 C   0  0  0  0  0  0  0  0  0  0  0  0
  -38.5320  163.2780   -4.1690 C   0  0  0  0  0  0  0  0  0  0  0  0
  -38.6060  163.8260   -2.9530 C   0  0  0  0  0  0  0  0  0  0  0  0
  -38.9270  163.0020   -1.7530 C   0  0  0  0  0  0  0  0  0  0  0  0
  -38.9160  163.5890   -0.6720 O   0  0  0  0  0  0  0  0  0  0  0  0
  -39.1730  161.6280   -1.9820 N   0  0  0  0  0  0  0  0  0  0  0  0
  -39.4980  160.7580   -0.8680 C   0  0  0  0  0  0  0  0  0  0  0  0
  -38.5040  160.1230   -0.1070 C   0  0  0  0  0  0  0  0  0  0  0  0
  -38.8290  159.2990    0.9770 C   0  0  0  0  0  0  0  0  0  0  0  0
  -40.1590  159.0910    1.3250 C   0  0  0  0  0  0  0  0  0  0  0  0
  -41.1630  159.7070    0.5880 C   0  0  0  0  0  0  0  0  0  0  0  0
  -40.8370  160.5310   -0.4950 C   0  0  0  0  0  0  0  0  0  0  0  0
  -39.0870  161.1170   -3.2810 C   0  0  0  0  0  0  0  0  0  0  0  0
  -38.5648  160.2385   -5.7052 H   0  0  0  0  0  0  0  0  0  0  0  0
  -39.6475  161.5536   -6.2751 H   0  0  0  0  0  0  0  0  0  0  0  0
  -37.8671  161.7925   -6.2751 H   0  0  0  0  0  0  0  0  0  0  0  0
  -38.2772  163.9042   -5.0367 H   0  0  0  0  0  0  0  0  0  0  0  0
  -38.4268  164.9049   -2.8351 H   0  0  0  0  0  0  0  0  0  0  0  0
  -37.4465  160.2762   -0.3682 H   0  0  0  0  0  0  0  0  0  0  0  0
  -38.0290  158.8141    1.5558 H   0  0  0  0  0  0  0  0  0  0  0  0
  -40.4144  158.4439    2.1771 H   0  0  0  0  0  0  0  0  0  0  0  0
  -42.2175  159.5464    0.8567 H   0  0  0  0  0  0  0  0  0  0  0  0
  -41.6440  161.0118   -1.0674 H   0  0  0  0  0  0  0  0  0  0  0  0
  -39.2767  160.0445   -3.4349 H   0  0  0  0  0  0  0  0  0  0  0  0
  1  2  1  0
  2  3  1  0
  3  4  2  0
  4  5  1  0
  5  6  2  0
  5  7  1  0
  7  8  1  0
  8  9  2  0
  9 10  1  0
 10 11  2  0
 11 12  1  0
 12 13  2  0
  7 14  1  0
 14  2  2  0
 13  8  1  0
  1 15  1  0
  1 16  1  0
  1 17  1  0
  3 18  1  0
  4 19  1  0
  9 20  1  0
 10 21  1  0
 11 22  1  0
 12 23  1  0
 13 24  1  0
 14 25  1  0
M  END
>  <meeko>  (7) 
{"is_sidechain": false}

>  <vina_affinity_kcal_mol>  (7) 
-7.077

>  <pose_rank>  (7) 
7

$$$$

     RDKit          3D

 25 26  0  0  0  0  0  0  0  0999 V2000
  -38.9590  159.6050   -2.9900 C   0  0  0  0  0  0  0  0  0  0  0  0
  -38.8930  161.0860   -3.2090 C   0  0  0  0  0  0  0  0  0  0  0  0
  -39.0500  161.9380   -2.0590 C   0  0  0  0  0  0  0  0  0  0  0  0
  -38.9770  163.2650   -2.1860 C   0  0  0  0  0  0  0  0  0  0  0  0
  -38.7540  163.9020   -3.5160 C   0  0  0  0  0  0  0  0  0  0  0  0
  -38.7580  165.1320   -3.5370 O   0  0  0  0  0  0  0  0  0  0  0  0
  -38.5990  163.0240   -4.6140 N   0  0  0  0  0  0  0  0  0  0  0  0
  -38.3720  163.5630   -5.9410 C   0  0  0  0  0  0  0  0  0  0  0  0
  -38.4720  164.9370   -6.2120 C   0  0  0  0  0  0  0  0  0  0  0  0
  -38.2340  165.4490   -7.4930 C   0  0  0  0  0  0  0  0  0  0  0  0
  -37.8910  164.5950   -8.5360 C   0  0  0  0  0  0  0  0  0  0  0  0
  -37.7860  163.2300   -8.2960 C   0  0  0  0  0  0  0  0  0  0  0  0
  -38.0230  162.7210   -7.0150 C   0  0  0  0  0  0  0  0  0  0  0  0
  -38.6790  161.6420   -4.4130 C   0  0  0  0  0  0  0  0  0  0  0  0
  -38.9684  159.3940   -1.9105 H   0  0  0  0  0  0  0  0  0  0  0  0
  -39.8758  159.2069   -3.4494 H   0  0  0  0  0  0  0  0  0  0  0  0
  -38.0813  159.1269   -3.4494 H   0  0  0  0  0  0  0  0  0  0  0  0
  -39.2312  161.4928   -1.0696 H   0  0  0  0  0  0  0  0  0  0  0  0
  -39.0832  163.8998   -1.2939 H   0  0  0  0  0  0  0  0  0  0  0  0
  -38.7435  165.6268   -5.3993 H   0  0  0  0  0  0  0  0  0  0  0  0
  -38.3185  166.5305   -7.6754 H   0  0  0  0  0  0  0  0  0  0  0  0
  -37.7043  164.9968   -9.5428 H   0  0  0  0  0  0  0  0  0  0  0  0
  -37.5158  162.5481   -9.1158 H   0  0  0  0  0  0  0  0  0  0  0  0
  -37.9348  161.6382   -6.8422 H   0  0  0  0  0  0  0  0  0  0  0  0
  -38.5610  160.9787   -5.2826 H   0  0  0  0  0  0  0  0  0  0  0  0
  1  2  1  0
  2  3  1  0
  3  4  2  0
  4  5  1  0
  5  6  2  0
  5  7  1  0
  7  8  1  0
  8  9  2  0
  9 10  1  0
 10 11  2  0
 11 12  1  0
 12 13  2  0
  7 14  1  0
 14  2  2  0
 13  8  1  0
  1 15  1  0
  1 16  1  0
  1 17  1  0
  3 18  1  0
  4 19  1  0
  9 20  1  0
 10 21  1  0
 11 22  1  0
 12 23  1  0
 13 24  1  0
 14 25  1  0
M  END
>  <meeko>  (8) 
{"is_sidechain": false}

>  <vina_affinity_kcal_mol>  (8) 
-6.93

>  <pose_rank>  (8) 
8

$$$$

     RDKit          3D

 25 26  0  0  0  0  0  0  0  0999 V2000
  -39.0630  160.7740    0.6960 C   0  0  0  0  0  0  0  0  0  0  0  0
  -39.0890  160.6330   -0.7960 C   0  0  0  0  0  0  0  0  0  0  0  0
  -39.2930  159.3150   -1.3370 C   0  0  0  0  0  0  0  0  0  0  0  0
  -39.3500  159.1290   -2.6590 C   0  0  0  0  0  0  0  0  0  0  0  0
  -39.1840  160.2680   -3.6060 C   0  0  0  0  0  0  0  0  0  0  0  0
  -39.1960  159.9860   -4.8030 O   0  0  0  0  0  0  0  0  0  0  0  0
  -38.9920  161.5440   -3.0260 N   0  0  0  0  0  0  0  0  0  0  0  0
  -38.8280  162.7060   -3.8790 C   0  0  0  0  0  0  0  0  0  0  0  0
  -39.0260  164.0110   -3.4020 C   0  0  0  0  0  0  0  0  0  0  0  0
  -38.8490  165.1260   -4.2300 C   0  0  0  0  0  0  0  0  0  0  0  0
  -38.4680  164.9600   -5.5570 C   0  0  0  0  0  0  0  0  0  0  0  0
  -38.2650  163.6790   -6.0550 C   0  0  0  0  0  0  0  0  0  0  0  0
  -38.4430  162.5650   -5.2260 C   0  0  0  0  0  0  0  0  0  0  0  0
  -38.9500  161.6730   -1.6340 C   0  0  0  0  0  0  0  0  0  0  0  0
  -39.2438  159.7933    1.1602 H   0  0  0  0  0  0  0  0  0  0  0  0
  -38.0798  161.1532    1.0114 H   0  0  0  0  0  0  0  0  0  0  0  0
  -39.8463  161.4790    1.0114 H   0  0  0  0  0  0  0  0  0  0  0  0
  -39.4026  158.4561   -0.6585 H   0  0  0  0  0  0  0  0  0  0  0  0
  -39.5225  158.1175   -3.0554 H   0  0  0  0  0  0  0  0  0  0  0  0
  -39.3269  164.1611   -2.3546 H   0  0  0  0  0  0  0  0  0  0  0  0
  -39.0120  166.1374   -3.8292 H   0  0  0  0  0  0  0  0  0  0  0  0
  -38.3284  165.8361   -6.2074 H   0  0  0  0  0  0  0  0  0  0  0  0
  -37.9635  163.5397   -7.1037 H   0  0  0  0  0  0  0  0  0  0  0  0
  -38.2785  161.5576   -5.6359 H   0  0  0  0  0  0  0  0  0  0  0  0
  -38.7957  162.6742   -1.2052 H   0  0  0  0  0  0  0  0  0  0  0  0
  1  2  1  0
  2  3  1  0
  3  4  2  0
  4  5  1  0
  5  6  2  0
  5  7  1  0
  7  8  1  0
  8  9  2  0
  9 10  1  0
 10 11  2  0
 11 12  1  0
 12 13  2  0
  7 14  1  0
 14  2  2  0
 13  8  1  0
  1 15  1  0
  1 16  1  0
  1 17  1  0
  3 18  1  0
  4 19  1  0
  9 20  1  0
 10 21  1  0
 11 22  1  0
 12 23  1  0
 13 24  1  0
 14 25  1  0
M  END
>  <meeko>  (9) 
{"is_sidechain": false}

>  <vina_affinity_kcal_mol>  (9) 
-6.423

>  <pose_rank>  (9) 
9

$$$$

     RDKit          3D

 25 26  0  0  0  0  0  0  0  0999 V2000
  -39.0360  162.8730  -11.3060 C   0  0  0  0  0  0  0  0  0  0  0  0
  -38.2460  162.5160  -10.0840 C   0  0  0  0  0  0  0  0  0  0  0  0
  -37.1300  161.6220  -10.2490 C   0  0  0  0  0  0  0  0  0  0  0  0
  -36.3730  161.2850   -9.2020 C   0  0  0  0  0  0  0  0  0  0  0  0
  -36.6710  161.8030   -7.8360 C   0  0  0  0  0  0  0  0  0  0  0  0
  -35.9500  161.3910   -6.9290 O   0  0  0  0  0  0  0  0  0  0  0  0
  -37.7730  162.6830   -7.7250 N   0  0  0  0  0  0  0  0  0  0  0  0
  -38.1260  163.2360   -6.4320 C   0  0  0  0  0  0  0  0  0  0  0  0
  -38.0810  164.6150   -6.1760 C   0  0  0  0  0  0  0  0  0  0  0  0
  -38.4410  165.1400   -4.9290 C   0  0  0  0  0  0  0  0  0  0  0  0
  -38.8540  164.2930   -3.9060 C   0  0  0  0  0  0  0  0  0  0  0  0
  -38.9080  162.9240   -4.1310 C   0  0  0  0  0  0  0  0  0  0  0  0
  -38.5490  162.4010   -5.3790 C   0  0  0  0  0  0  0  0  0  0  0  0
  -38.5220  163.0020   -8.8630 C   0  0  0  0  0  0  0  0  0  0  0  0
  -40.0001  163.3087  -11.0050 H   0  0  0  0  0  0  0  0  0  0  0  0
  -38.4741  163.6047  -11.9051 H   0  0  0  0  0  0  0  0  0  0  0  0
  -39.2138  161.9677  -11.9051 H   0  0  0  0  0  0  0  0  0  0  0  0
  -36.8993  161.2138  -11.2441 H   0  0  0  0  0  0  0  0  0  0  0  0
  -35.5144  160.6134   -9.3498 H   0  0  0  0  0  0  0  0  0  0  0  0
  -37.7554  165.2992   -6.9734 H   0  0  0  0  0  0  0  0  0  0  0  0
  -38.3971  166.2257   -4.7578 H   0  0  0  0  0  0  0  0  0  0  0  0
  -39.1358  164.7048   -2.9257 H   0  0  0  0  0  0  0  0  0  0  0  0
  -39.2338  162.2484   -3.3264 H   0  0  0  0  0  0  0  0  0  0  0  0
  -38.5983  161.3141   -5.5410 H   0  0  0  0  0  0  0  0  0  0  0  0
  -39.3781  163.6837   -8.7521 H   0  0  0  0  0  0  0  0  0  0  0  0
  1  2  1  0
  2  3  1  0
  3  4  2  0
  4  5  1  0
  5  6  2  0
  5  7  1  0
  7  8  1  0
  8  9  2  0
  9 10  1  0
 10 11  2  0
 11 12  1  0
 12 13  2  0
  7 14  1  0
 14  2  2  0
 13  8  1  0
  1 15  1  0
  1 16  1  0
  1 17  1  0
  3 18  1  0
  4 19  1  0
  9 20  1  0
 10 21  1  0
 11 22  1  0
 12 23  1  0
 13 24  1  0
 14 25  1  0
M  END
>  <meeko>  (10) 
{"is_sidechain": false}

>  <vina_affinity_kcal_mol>  (10) 
-6.212

>  <pose_rank>  (10) 
10

$$$$
