
     RDKit          3D

 46 49  0  0  0  0  0  0  0  0999 V2000
   -5.9215   -2.0506    1.4107 C   0  0  0  0  0  0  0  0  0  0  0  0
   -5.6273   -0.8813    0.6235 N   0  0  0  0  0  0  0  0  0  0  0  0
   -4.9933   -0.9816   -0.5942 C   0  0  0  0  0  0  0  0  0  0  0  0
   -4.7393   -2.0458   -1.1476 O   0  0  0  0  0  0  0  0  0  0  0  0
   -4.6407    0.2977   -1.2615 C   0  0  0  0  0  0  0  0  0  0  0  0
   -4.9700    0.3915   -2.6240 C   0  0  0  0  0  0  0  0  0  0  0  0
   -4.6867    1.5520   -3.3427 C   0  0  0  0  0  0  0  0  0  0  0  0
   -4.0651    2.6232   -2.7084 C   0  0  0  0  0  0  0  0  0  0  0  0
   -3.7159    2.5304   -1.3589 C   0  0  0  0  0  0  0  0  0  0  0  0
   -3.9877    1.3659   -0.6213 C   0  0  0  0  0  0  0  0  0  0  0  0
   -3.4377    1.3344    1.0849 S   0  0  0  0  0  0  0  0  0  0  0  0
   -1.7494    0.7862    0.8630 C   0  0  0  0  0  0  0  0  0  0  0  0
   -0.7039    1.6817    1.1091 C   0  0  0  0  0  0  0  0  0  0  0  0
    0.6345    1.2936    0.9480 C   0  0  0  0  0  0  0  0  0  0  0  0
    0.9222   -0.0221    0.5335 C   0  0  0  0  0  0  0  0  0  0  0  0
    2.0961   -0.7893    0.2582 C   0  0  0  0  0  0  0  0  0  0  0  0
    3.4375   -0.2939    0.3645 C   0  0  0  0  0  0  0  0  0  0  0  0
    4.5428   -1.0135    0.1038 C   0  0  0  0  0  0  0  0  0  0  0  0
    5.9102   -0.4930    0.2168 C   0  0  0  0  0  0  0  0  0  0  0  0
    6.9940   -1.3165   -0.0748 C   0  0  0  0  0  0  0  0  0  0  0  0
    8.2827   -0.8000    0.0399 C   0  0  0  0  0  0  0  0  0  0  0  0
    8.4535    0.5186    0.4408 C   0  0  0  0  0  0  0  0  0  0  0  0
    7.3224    1.2691    0.7115 C   0  0  0  0  0  0  0  0  0  0  0  0
    6.0611    0.7953    0.6090 N   0  0  0  0  0  0  0  0  0  0  0  0
    1.7842   -2.0405   -0.1147 N   0  0  0  0  0  0  0  0  0  0  0  0
    0.4428   -2.0692   -0.0805 N   0  0  0  0  0  0  0  0  0  0  0  0
   -0.1365   -0.8925    0.3049 C   0  0  0  0  0  0  0  0  0  0  0  0
   -1.4791   -0.5312    0.4657 C   0  0  0  0  0  0  0  0  0  0  0  0
   -5.0065   -2.3689    1.9172 H   0  0  0  0  0  0  0  0  0  0  0  0
   -6.2834   -2.8597    0.7708 H   0  0  0  0  0  0  0  0  0  0  0  0
   -6.6822   -1.7900    2.1500 H   0  0  0  0  0  0  0  0  0  0  0  0
   -5.6562    0.0237    1.0785 H   0  0  0  0  0  0  0  0  0  0  0  0
   -5.4524   -0.4462   -3.1253 H   0  0  0  0  0  0  0  0  0  0  0  0
   -4.9479    1.6169   -4.3963 H   0  0  0  0  0  0  0  0  0  0  0  0
   -3.8396    3.5292   -3.2662 H   0  0  0  0  0  0  0  0  0  0  0  0
   -3.2137    3.3750   -0.8907 H   0  0  0  0  0  0  0  0  0  0  0  0
   -0.9165    2.6993    1.4299 H   0  0  0  0  0  0  0  0  0  0  0  0
    1.4338    2.0032    1.1414 H   0  0  0  0  0  0  0  0  0  0  0  0
    3.5536    0.7399    0.6796 H   0  0  0  0  0  0  0  0  0  0  0  0
    4.4437   -2.0484   -0.2123 H   0  0  0  0  0  0  0  0  0  0  0  0
    6.8474   -2.3453   -0.3871 H   0  0  0  0  0  0  0  0  0  0  0  0
    9.1439   -1.4235   -0.1823 H   0  0  0  0  0  0  0  0  0  0  0  0
    9.4425    0.9513    0.5401 H   0  0  0  0  0  0  0  0  0  0  0  0
    7.4017    2.3050    1.0285 H   0  0  0  0  0  0  0  0  0  0  0  0
   -0.0260   -2.9308   -0.3363 H   0  0  0  0  0  0  0  0  0  0  0  0
   -2.2719   -1.2497    0.2844 H   0  0  0  0  0  0  0  0  0  0  0  0
  1  2  1  0
  2  3  1  0
  3  4  2  0
  3  5  1  0
  5  6  2  0
  6  7  1  0
  7  8  2  0
  8  9  1  0
  9 10  2  0
 10 11  1  0
 11 12  1  0
 12 13  2  0
 13 14  1  0
 14 15  2  0
 15 16  1  0
 16 17  1  0
 17 18  2  0
 18 19  1  0
 19 20  2  0
 20 21  1  0
 21 22  2  0
 22 23  1  0
 23 24  2  0
 16 25  2  0
 25 26  1  0
 26 27  1  0
 27 28  2  0
 10  5  1  0
 28 12  1  0
 27 15  1  0
 24 19  1  0
  1 29  1  0
  1 30  1  0
  1 31  1  0
  2 32  1  0
  6 33  1  0
  7 34  1  0
  8 35  1  0
  9 36  1  0
 13 37  1  0
 14 38  1  0
 17 39  1  0
 18 40  1  0
 20 41  1  0
 21 42  1  0
 22 43  1  0
 23 44  1  0
 26 45  1  0
 28 46  1  0
M  END
$$$$
