
     RDKit          3D

 46 49  0  0  0  0  0  0  0  0999 V2000
  -37.8160  156.8950    3.8170 C   0  0  0  0  0  0  0  0  0  0  0  0
  -38.9460  157.5020    3.1620 N   0  0  0  0  0  0  0  0  0  0  0  0
  -38.8160  158.1070    1.9320 C   0  0  0  0  0  0  0  0  0  0  0  0
  -37.7910  158.0810    1.2600 O   0  0  0  0  0  0  0  0  0  0  0  0
  -40.0230  158.7970    1.4060 C   0  0  0  0  0  0  0  0  0  0  0  0
  -41.0140  159.1100    2.3510 C   0  0  0  0  0  0  0  0  0  0  0  0
  -42.1830  159.7610    1.9630 C   0  0  0  0  0  0  0  0  0  0  0  0
  -42.3750  160.0960    0.6250 C   0  0  0  0  0  0  0  0  0  0  0  0
  -41.4040  159.7700   -0.3240 C   0  0  0  0  0  0  0  0  0  0  0  0
  -40.2220  159.1080    0.0490 C   0  0  0  0  0  0  0  0  0  0  0  0
  -39.0760  158.6830   -1.2620 S   0  0  0  0  0  0  0  0  0  0  0  0
  -38.9820  160.2500   -2.1210 C   0  0  0  0  0  0  0  0  0  0  0  0
  -38.9580  160.2610   -3.5190 C   0  0  0  0  0  0  0  0  0  0  0  0
  -38.8860  161.4660   -4.2320 C   0  0  0  0  0  0  0  0  0  0  0  0
  -38.8370  162.6820   -3.5210 C   0  0  0  0  0  0  0  0  0  0  0  0
  -38.7600  164.0720   -3.8460 C   0  0  0  0  0  0  0  0  0  0  0  0
  -38.7060  164.5950   -5.1800 C   0  0  0  0  0  0  0  0  0  0  0  0
  -38.0870  163.9960   -6.2140 C   0  0  0  0  0  0  0  0  0  0  0  0
  -38.0410  164.5430   -7.5740 C   0  0  0  0  0  0  0  0  0  0  0  0
  -37.9970  163.6840   -8.6680 C   0  0  0  0  0  0  0  0  0  0  0  0
  -37.9530  164.2260   -9.9510 C   0  0  0  0  0  0  0  0  0  0  0  0
  -37.9560  165.6060  -10.1060 C   0  0  0  0  0  0  0  0  0  0  0  0
  -38.0020  166.3900   -8.9650 C   0  0  0  0  0  0  0  0  0  0  0  0
  -38.0450  165.8910   -7.7100 N   0  0  0  0  0  0  0  0  0  0  0  0
  -38.7440  164.8310   -2.7400 N   0  0  0  0  0  0  0  0  0  0  0  0
  -38.8080  163.9470   -1.7330 N   0  0  0  0  0  0  0  0  0  0  0  0
  -38.8710  162.6410   -2.1330 C   0  0  0  0  0  0  0  0  0  0  0  0
  -38.9510  161.4510   -1.3990 C   0  0  0  0  0  0  0  0  0  0  0  0
  -37.9438  156.9637    4.9074 H   0  0  0  0  0  0  0  0  0  0  0  0
  -37.7456  155.8377    3.5219 H   0  0  0  0  0  0  0  0  0  0  0  0
  -36.8956  157.4201    3.5219 H   0  0  0  0  0  0  0  0  0  0  0  0
  -39.7710  157.7050    3.7150 H   0  0  0  0  0  0  0  0  0  0  0  0
  -40.8657  158.8387    3.4067 H   0  0  0  0  0  0  0  0  0  0  0  0
  -42.9510  160.0093    2.7103 H   0  0  0  0  0  0  0  0  0  0  0  0
  -43.2925  160.6179    0.3154 H   0  0  0  0  0  0  0  0  0  0  0  0
  -41.5667  160.0353   -1.3790 H   0  0  0  0  0  0  0  0  0  0  0  0
  -38.9962  159.3087   -4.0683 H   0  0  0  0  0  0  0  0  0  0  0  0
  -38.8680  161.4625   -5.3318 H   0  0  0  0  0  0  0  0  0  0  0  0
  -39.2068  165.5554   -5.3721 H   0  0  0  0  0  0  0  0  0  0  0  0
  -37.5839  163.0358   -6.0274 H   0  0  0  0  0  0  0  0  0  0  0  0
  -37.9970  162.5937   -8.5222 H   0  0  0  0  0  0  0  0  0  0  0  0
  -37.9163  163.5678  -10.8316 H   0  0  0  0  0  0  0  0  0  0  0  0
  -37.9228  166.0633  -11.1059 H   0  0  0  0  0  0  0  0  0  0  0  0
  -38.0036  167.4831   -9.0878 H   0  0  0  0  0  0  0  0  0  0  0  0
  -38.8030  164.3000   -0.7820 H   0  0  0  0  0  0  0  0  0  0  0  0
  -38.9880  161.4585   -0.2996 H   0  0  0  0  0  0  0  0  0  0  0  0
  1  2  1  0
  2  3  1  0
  3  4  2  0
  3  5  1  0
  5  6  2  0
  6  7  1  0
  7  8  2  0
  8  9  1  0
  9 10  2  0
 10 11  1  0
 11 12  1  0
 12 13  2  0
 13 14  1  0
 14 15  2  0
 15 16  1  0
 16 17  1  0
 17 18  2  0
 18 19  1  0
 19 20  2  0
 20 21  1  0
 21 22  2  0
 22 23  1  0
 23 24  2  0
 16 25  2  0
 25 26  1  0
 26 27  1  0
 27 28  2  0
 10  5  1  0
 28 12  1  0
 27 15  1  0
 24 19  1  0
  1 29  1  0
  1 30  1  0
  1 31  1  0
  2 32  1  0
  6 33  1  0
  7 34  1  0
  8 35  1  0
  9 36  1  0
 13 37  1  0
 14 38  1  0
 17 39  1  0
 18 40  1  0
 20 41  1  0
 21 42  1  0
 22 43  1  0
 23 44  1  0
 26 45  1  0
 28 46  1  0
M  END
>  <meeko>  (1) 
{"is_sidechain": false}

>  <vina_affinity_kcal_mol>  (1) 
-11.27

>  <pose_rank>  (1) 
1

$$$$

     RDKit          3D

 46 49  0  0  0  0  0  0  0  0999 V2000
  -37.9000  162.3020   -9.1210 C   0  0  0  0  0  0  0  0  0  0  0  0
  -38.1610  162.8860   -7.8300 N   0  0  0  0  0  0  0  0  0  0  0  0
  -37.5320  162.4210   -6.6970 C   0  0  0  0  0  0  0  0  0  0  0  0
  -36.6410  161.5790   -6.7050 O   0  0  0  0  0  0  0  0  0  0  0  0
  -37.9630  163.0240   -5.4090 C   0  0  0  0  0  0  0  0  0  0  0  0
  -37.5030  164.3270   -5.1560 C   0  0  0  0  0  0  0  0  0  0  0  0
  -37.8540  164.9850   -3.9780 C   0  0  0  0  0  0  0  0  0  0  0  0
  -38.6590  164.3430   -3.0420 C   0  0  0  0  0  0  0  0  0  0  0  0
  -39.1040  163.0410   -3.2780 C   0  0  0  0  0  0  0  0  0  0  0  0
  -38.7550  162.3600   -4.4560 C   0  0  0  0  0  0  0  0  0  0  0  0
  -39.3280  160.6700   -4.6220 S   0  0  0  0  0  0  0  0  0  0  0  0
  -39.1440  160.1050   -2.9340 C   0  0  0  0  0  0  0  0  0  0  0  0
  -38.2640  159.0530   -2.6600 C   0  0  0  0  0  0  0  0  0  0  0  0
  -38.0890  158.5790   -1.3520 C   0  0  0  0  0  0  0  0  0  0  0  0
  -38.8130  159.1790   -0.3020 C   0  0  0  0  0  0  0  0  0  0  0  0
  -38.9250  159.0060    1.1120 C   0  0  0  0  0  0  0  0  0  0  0  0
  -38.2070  158.0260    1.8730 C   0  0  0  0  0  0  0  0  0  0  0  0
  -37.9300  158.1260    3.1850 C   0  0  0  0  0  0  0  0  0  0  0  0
  -37.1950  157.1140    3.9510 C   0  0  0  0  0  0  0  0  0  0  0  0
  -37.8860  156.0990    4.6060 C   0  0  0  0  0  0  0  0  0  0  0  0
  -37.1670  155.1490    5.3280 C   0  0  0  0  0  0  0  0  0  0  0  0
  -35.7810  155.2370    5.3750 C   0  0  0  0  0  0  0  0  0  0  0  0
  -35.1720  156.2780    4.6950 C   0  0  0  0  0  0  0  0  0  0  0  0
  -35.8440  157.2130    3.9880 N   0  0  0  0  0  0  0  0  0  0  0  0
  -39.7930  159.8820    1.6430 N   0  0  0  0  0  0  0  0  0  0  0  0
  -40.2250  160.5950    0.5920 N   0  0  0  0  0  0  0  0  0  0  0  0
  -39.6730  160.2280   -0.6030 C   0  0  0  0  0  0  0  0  0  0  0  0
  -39.8590  160.7230   -1.8990 C   0  0  0  0  0  0  0  0  0  0  0  0
  -37.4544  161.3050   -8.9891 H   0  0  0  0  0  0  0  0  0  0  0  0
  -38.8431  162.2111   -9.6798 H   0  0  0  0  0  0  0  0  0  0  0  0
  -37.2032  162.9440   -9.6798 H   0  0  0  0  0  0  0  0  0  0  0  0
  -38.9880  163.4610   -7.7210 H   0  0  0  0  0  0  0  0  0  0  0  0
  -36.8610  164.8319   -5.8928 H   0  0  0  0  0  0  0  0  0  0  0  0
  -37.4959  166.0078   -3.7892 H   0  0  0  0  0  0  0  0  0  0  0  0
  -38.9450  164.8619   -2.1152 H   0  0  0  0  0  0  0  0  0  0  0  0
  -39.7373  162.5410   -2.5304 H   0  0  0  0  0  0  0  0  0  0  0  0
  -37.7004  158.5902   -3.4835 H   0  0  0  0  0  0  0  0  0  0  0  0
  -37.3957  157.7497   -1.1480 H   0  0  0  0  0  0  0  0  0  0  0  0
  -37.8571  157.1266    1.3451 H   0  0  0  0  0  0  0  0  0  0  0  0
  -38.2767  159.0239    3.7176 H   0  0  0  0  0  0  0  0  0  0  0  0
  -38.9836  156.0476    4.5544 H   0  0  0  0  0  0  0  0  0  0  0  0
  -37.6908  154.3380    5.8552 H   0  0  0  0  0  0  0  0  0  0  0  0
  -35.1854  154.5015    5.9357 H   0  0  0  0  0  0  0  0  0  0  0  0
  -34.0749  156.3481    4.7326 H   0  0  0  0  0  0  0  0  0  0  0  0
  -40.9070  161.3280    0.7560 H   0  0  0  0  0  0  0  0  0  0  0  0
  -40.5396  161.5641   -2.0974 H   0  0  0  0  0  0  0  0  0  0  0  0
  1  2  1  0
  2  3  1  0
  3  4  2  0
  3  5  1  0
  5  6  2  0
  6  7  1  0
  7  8  2  0
  8  9  1  0
  9 10  2  0
 10 11  1  0
 11 12  1  0
 12 13  2  0
 13 14  1  0
 14 15  2  0
 15 16  1  0
 16 17  1  0
 17 18  2  0
 18 19  1  0
 19 20  2  0
 20 21  1  0
 21 22  2  0
 22 23  1  0
 23 24  2  0
 16 25  2  0
 25 26  1  0
 26 27  1  0
 27 28  2  0
 10  5  1  0
 28 12  1  0
 27 15  1  0
 24 19  1  0
  1 29  1  0
  1 30  1  0
  1 31  1  0
  2 32  1  0
  6 33  1  0
  7 34  1  0
  8 35  1  0
  9 36  1  0
 13 37  1  0
 14 38  1  0
 17 39  1  0
 18 40  1  0
 20 41  1  0
 21 42  1  0
 22 43  1  0
 23 44  1  0
 26 45  1  0
 28 46  1  0
M  END
>  <meeko>  (2) 
{"is_sidechain": false}

>  <vina_affinity_kcal_mol>  (2) 
-10.358

>  <pose_rank>  (2) 
2

$$$$

     RDKit          3D

 46 49  0  0  0  0  0  0  0  0999 V2000
  -37.7360  169.3470  -10.6410 C   0  0  0  0  0  0  0  0  0  0  0  0
  -36.8190  168.2400  -10.7340 N   0  0  0  0  0  0  0  0  0  0  0  0
  -37.1860  167.0580  -11.3380 C   0  0  0  0  0  0  0  0  0  0  0  0
  -38.2460  166.8930  -11.9310 O   0  0  0  0  0  0  0  0  0  0  0  0
  -36.1980  165.9510  -11.2740 C   0  0  0  0  0  0  0  0  0  0  0  0
  -34.8640  166.3000  -11.5400 C   0  0  0  0  0  0  0  0  0  0  0  0
  -33.8580  165.3370  -11.5020 C   0  0  0  0  0  0  0  0  0  0  0  0
  -34.1780  164.0150  -11.2050 C   0  0  0  0  0  0  0  0  0  0  0  0
  -35.5050  163.6550  -10.9590 C   0  0  0  0  0  0  0  0  0  0  0  0
  -36.5330  164.6120  -11.0000 C   0  0  0  0  0  0  0  0  0  0  0  0
  -38.2060  164.0260  -10.7320 S   0  0  0  0  0  0  0  0  0  0  0  0
  -38.1970  163.8470   -8.9520 C   0  0  0  0  0  0  0  0  0  0  0  0
  -38.1990  162.5640   -8.3960 C   0  0  0  0  0  0  0  0  0  0  0  0
  -38.1920  162.3790   -7.0060 C   0  0  0  0  0  0  0  0  0  0  0  0
  -38.1810  163.5080   -6.1620 C   0  0  0  0  0  0  0  0  0  0  0  0
  -38.1730  163.7500   -4.7540 C   0  0  0  0  0  0  0  0  0  0  0  0
  -38.1770  162.7270   -3.7500 C   0  0  0  0  0  0  0  0  0  0  0  0
  -39.1900  161.8680   -3.5360 C   0  0  0  0  0  0  0  0  0  0  0  0
  -39.1790  160.8240   -2.5050 C   0  0  0  0  0  0  0  0  0  0  0  0
  -38.5600  159.6030   -2.7580 C   0  0  0  0  0  0  0  0  0  0  0  0
  -38.5630  158.6270   -1.7640 C   0  0  0  0  0  0  0  0  0  0  0  0
  -39.1810  158.8950   -0.5490 C   0  0  0  0  0  0  0  0  0  0  0  0
  -39.7730  160.1350   -0.3800 C   0  0  0  0  0  0  0  0  0  0  0  0
  -39.7850  161.1000   -1.3250 N   0  0  0  0  0  0  0  0  0  0  0  0
  -38.1610  165.0660   -4.4860 N   0  0  0  0  0  0  0  0  0  0  0  0
  -38.1630  165.6480   -5.6950 N   0  0  0  0  0  0  0  0  0  0  0  0
  -38.1690  164.7690   -6.7430 C   0  0  0  0  0  0  0  0  0  0  0  0
  -38.1690  164.9800   -8.1270 C   0  0  0  0  0  0  0  0  0  0  0  0
  -37.9267  169.5772   -9.5824 H   0  0  0  0  0  0  0  0  0  0  0  0
  -37.2991  170.2275  -11.1348 H   0  0  0  0  0  0  0  0  0  0  0  0
  -38.6824  169.0816  -11.1348 H   0  0  0  0  0  0  0  0  0  0  0  0
  -36.0010  168.2420  -10.1350 H   0  0  0  0  0  0  0  0  0  0  0  0
  -34.6111  167.3432  -11.7805 H   0  0  0  0  0  0  0  0  0  0  0  0
  -32.8148  165.6201  -11.7059 H   0  0  0  0  0  0  0  0  0  0  0  0
  -33.3853  163.2535  -11.1640 H   0  0  0  0  0  0  0  0  0  0  0  0
  -35.7488  162.6071  -10.7299 H   0  0  0  0  0  0  0  0  0  0  0  0
  -38.2062  161.6864   -9.0591 H   0  0  0  0  0  0  0  0  0  0  0  0
  -38.1951  161.3651   -6.5794 H   0  0  0  0  0  0  0  0  0  0  0  0
  -37.2879  162.6379   -3.1084 H   0  0  0  0  0  0  0  0  0  0  0  0
  -40.0822  161.9536   -4.1737 H   0  0  0  0  0  0  0  0  0  0  0  0
  -38.0763  159.4119   -3.7273 H   0  0  0  0  0  0  0  0  0  0  0  0
  -38.0809  157.6539   -1.9394 H   0  0  0  0  0  0  0  0  0  0  0  0
  -39.1994  158.1443    0.2548 H   0  0  0  0  0  0  0  0  0  0  0  0
  -40.2631  160.3471    0.5817 H   0  0  0  0  0  0  0  0  0  0  0  0
  -38.1610  166.6610   -5.7410 H   0  0  0  0  0  0  0  0  0  0  0  0
  -38.1479  165.9950   -8.5504 H   0  0  0  0  0  0  0  0  0  0  0  0
  1  2  1  0
  2  3  1  0
  3  4  2  0
  3  5  1  0
  5  6  2  0
  6  7  1  0
  7  8  2  0
  8  9  1  0
  9 10  2  0
 10 11  1  0
 11 12  1  0
 12 13  2  0
 13 14  1  0
 14 15  2  0
 15 16  1  0
 16 17  1  0
 17 18  2  0
 18 19  1  0
 19 20  2  0
 20 21  1  0
 21 22  2  0
 22 23  1  0
 23 24  2  0
 16 25  2  0
 25 26  1  0
 26 27  1  0
 27 28  2  0
 10  5  1  0
 28 12  1  0
 27 15  1  0
 24 19  1  0
  1 29  1  0
  1 30  1  0
  1 31  1  0
  2 32  1  0
  6 33  1  0
  7 34  1  0
  8 35  1  0
  9 36  1  0
 13 37  1  0
 14 38  1  0
 17 39  1  0
 18 40  1  0
 20 41  1  0
 21 42  1  0
 22 43  1  0
 23 44  1  0
 26 45  1  0
 28 46  1  0
M  END
>  <meeko>  (3) 
{"is_sidechain": false}

>  <vina_affinity_kcal_mol>  (3) 
-10.274

>  <pose_rank>  (3) 
3

$$$$

     RDKit          3D

 46 49  0  0  0  0  0  0  0  0999 V2000
  -33.7360  166.1780  -12.0220 C   0  0  0  0  0  0  0  0  0  0  0  0
  -34.8910  165.3210  -11.9330 N   0  0  0  0  0  0  0  0  0  0  0  0
  -34.8650  164.1660  -11.1840 C   0  0  0  0  0  0  0  0  0  0  0  0
  -33.9300  163.8400  -10.4600 O   0  0  0  0  0  0  0  0  0  0  0  0
  -36.0740  163.3050  -11.2580 C   0  0  0  0  0  0  0  0  0  0  0  0
  -35.9460  162.1290  -12.0130 C   0  0  0  0  0  0  0  0  0  0  0  0
  -37.0200  161.2490  -12.1420 C   0  0  0  0  0  0  0  0  0  0  0  0
  -38.2320  161.5440  -11.5250 C   0  0  0  0  0  0  0  0  0  0  0  0
  -38.3730  162.7230  -10.7890 C   0  0  0  0  0  0  0  0  0  0  0  0
  -37.3030  163.6230  -10.6540 C   0  0  0  0  0  0  0  0  0  0  0  0
  -37.6180  165.1340   -9.7410 S   0  0  0  0  0  0  0  0  0  0  0  0
  -37.9010  164.4630   -8.1060 C   0  0  0  0  0  0  0  0  0  0  0  0
  -37.7300  163.0910   -7.8930 C   0  0  0  0  0  0  0  0  0  0  0  0
  -37.9400  162.5240   -6.6280 C   0  0  0  0  0  0  0  0  0  0  0  0
  -38.3290  163.3560   -5.5590 C   0  0  0  0  0  0  0  0  0  0  0  0
  -38.6350  163.1890   -4.1730 C   0  0  0  0  0  0  0  0  0  0  0  0
  -38.6040  161.9360   -3.4770 C   0  0  0  0  0  0  0  0  0  0  0  0
  -39.0890  161.7350   -2.2380 C   0  0  0  0  0  0  0  0  0  0  0  0
  -39.0510  160.4460   -1.5380 C   0  0  0  0  0  0  0  0  0  0  0  0
  -38.4110  159.3570   -2.1220 C   0  0  0  0  0  0  0  0  0  0  0  0
  -38.3880  158.1420   -1.4390 C   0  0  0  0  0  0  0  0  0  0  0  0
  -39.0020  158.0500   -0.1970 C   0  0  0  0  0  0  0  0  0  0  0  0
  -39.6160  159.1810    0.3120 C   0  0  0  0  0  0  0  0  0  0  0  0
  -39.6540  160.3710   -0.3270 N   0  0  0  0  0  0  0  0  0  0  0  0
  -38.9560  164.3590   -3.6000 N   0  0  0  0  0  0  0  0  0  0  0  0
  -38.8600  165.2510   -4.5980 N   0  0  0  0  0  0  0  0  0  0  0  0
  -38.4820  164.7150   -5.7980 C   0  0  0  0  0  0  0  0  0  0  0  0
  -38.2710  165.3060   -7.0490 C   0  0  0  0  0  0  0  0  0  0  0  0
  -33.3907  166.4342  -11.0095 H   0  0  0  0  0  0  0  0  0  0  0  0
  -32.9326  165.6557  -12.5622 H   0  0  0  0  0  0  0  0  0  0  0  0
  -34.0030  167.0983  -12.5622 H   0  0  0  0  0  0  0  0  0  0  0  0
  -35.6280  165.4350  -12.6190 H   0  0  0  0  0  0  0  0  0  0  0  0
  -34.9904  161.8995  -12.5072 H   0  0  0  0  0  0  0  0  0  0  0  0
  -36.9096  160.3253  -12.7291 H   0  0  0  0  0  0  0  0  0  0  0  0
  -39.0793  160.8486  -11.6169 H   0  0  0  0  0  0  0  0  0  0  0  0
  -39.3360  162.9499  -10.3082 H   0  0  0  0  0  0  0  0  0  0  0  0
  -37.4260  162.4468   -8.7312 H   0  0  0  0  0  0  0  0  0  0  0  0
  -37.8029  161.4438   -6.4719 H   0  0  0  0  0  0  0  0  0  0  0  0
  -38.1510  161.0767   -3.9932 H   0  0  0  0  0  0  0  0  0  0  0  0
  -39.5426  162.5911   -1.7171 H   0  0  0  0  0  0  0  0  0  0  0  0
  -37.9309  159.4534   -3.1070 H   0  0  0  0  0  0  0  0  0  0  0  0
  -37.8890  157.2660   -1.8790 H   0  0  0  0  0  0  0  0  0  0  0  0
  -39.0004  157.1052    0.3663 H   0  0  0  0  0  0  0  0  0  0  0  0
  -40.1023  159.1068    1.2959 H   0  0  0  0  0  0  0  0  0  0  0  0
  -39.0670  166.2230   -4.3960 H   0  0  0  0  0  0  0  0  0  0  0  0
  -38.3908  166.3894   -7.1969 H   0  0  0  0  0  0  0  0  0  0  0  0
  1  2  1  0
  2  3  1  0
  3  4  2  0
  3  5  1  0
  5  6  2  0
  6  7  1  0
  7  8  2  0
  8  9  1  0
  9 10  2  0
 10 11  1  0
 11 12  1  0
 12 13  2  0
 13 14  1  0
 14 15  2  0
 15 16  1  0
 16 17  1  0
 17 18  2  0
 18 19  1  0
 19 20  2  0
 20 21  1  0
 21 22  2  0
 22 23  1  0
 23 24  2  0
 16 25  2  0
 25 26  1  0
 26 27  1  0
 27 28  2  0
 10  5  1  0
 28 12  1  0
 27 15  1  0
 24 19  1  0
  1 29  1  0
  1 30  1  0
  1 31  1  0
  2 32  1  0
  6 33  1  0
  7 34  1  0
  8 35  1  0
  9 36  1  0
 13 37  1  0
 14 38  1  0
 17 39  1  0
 18 40  1  0
 20 41  1  0
 21 42  1  0
 22 43  1  0
 23 44  1  0
 26 45  1  0
 28 46  1  0
M  END
>  <meeko>  (4) 
{"is_sidechain": false}

>  <vina_affinity_kcal_mol>  (4) 
-9.598

>  <pose_rank>  (4) 
4

$$$$

     RDKit          3D

 46 49  0  0  0  0  0  0  0  0999 V2000
  -42.7510  159.8810    2.0450 C   0  0  0  0  0  0  0  0  0  0  0  0
  -41.5650  159.5740    1.2880 N   0  0  0  0  0  0  0  0  0  0  0  0
  -41.2200  160.3070    0.1740 C   0  0  0  0  0  0  0  0  0  0  0  0
  -41.8080  161.3210   -0.1870 O   0  0  0  0  0  0  0  0  0  0  0  0
  -40.0400  159.8290   -0.5910 C   0  0  0  0  0  0  0  0  0  0  0  0
  -39.8280  158.4400   -0.5910 C   0  0  0  0  0  0  0  0  0  0  0  0
  -38.7510  157.8880   -1.2820 C   0  0  0  0  0  0  0  0  0  0  0  0
  -37.8730  158.7190   -1.9700 C   0  0  0  0  0  0  0  0  0  0  0  0
  -38.0640  160.1030   -1.9580 C   0  0  0  0  0  0  0  0  0  0  0  0
  -39.1400  160.6770   -1.2610 C   0  0  0  0  0  0  0  0  0  0  0  0
  -39.2510  162.4660   -1.2610 S   0  0  0  0  0  0  0  0  0  0  0  0
  -38.9090  162.8050   -2.9850 C   0  0  0  0  0  0  0  0  0  0  0  0
  -38.8830  161.7440   -3.8960 C   0  0  0  0  0  0  0  0  0  0  0  0
  -38.6200  161.9650   -5.2550 C   0  0  0  0  0  0  0  0  0  0  0  0
  -38.3790  163.2800   -5.7030 C   0  0  0  0  0  0  0  0  0  0  0  0
  -38.0820  163.9120   -6.9500 C   0  0  0  0  0  0  0  0  0  0  0  0
  -37.9450  163.2260   -8.2000 C   0  0  0  0  0  0  0  0  0  0  0  0
  -37.0900  162.2130   -8.4290 C   0  0  0  0  0  0  0  0  0  0  0  0
  -36.9620  161.5180   -9.7160 C   0  0  0  0  0  0  0  0  0  0  0  0
  -36.8830  160.1290   -9.7510 C   0  0  0  0  0  0  0  0  0  0  0  0
  -36.7610  159.4910  -10.9830 C   0  0  0  0  0  0  0  0  0  0  0  0
  -36.7220  160.2550  -12.1430 C   0  0  0  0  0  0  0  0  0  0  0  0
  -36.8070  161.6320  -12.0190 C   0  0  0  0  0  0  0  0  0  0  0  0
  -36.9250  162.2760  -10.8380 N   0  0  0  0  0  0  0  0  0  0  0  0
  -37.9460  165.2400   -6.8020 N   0  0  0  0  0  0  0  0  0  0  0  0
  -38.1500  165.4480   -5.4920 N   0  0  0  0  0  0  0  0  0  0  0  0
  -38.4190  164.3140   -4.7770 C   0  0  0  0  0  0  0  0  0  0  0  0
  -38.6880  164.1200   -3.4170 C   0  0  0  0  0  0  0  0  0  0  0  0
  -42.5252  159.8226    3.1200 H   0  0  0  0  0  0  0  0  0  0  0  0
  -43.0918  160.8970    1.7966 H   0  0  0  0  0  0  0  0  0  0  0  0
  -43.5419  159.1580    1.7966 H   0  0  0  0  0  0  0  0  0  0  0  0
  -41.1290  158.6700    1.4230 H   0  0  0  0  0  0  0  0  0  0  0  0
  -40.5178  157.7829   -0.0411 H   0  0  0  0  0  0  0  0  0  0  0  0
  -38.5958  156.7990   -1.2833 H   0  0  0  0  0  0  0  0  0  0  0  0
  -37.0272  158.2860   -2.5242 H   0  0  0  0  0  0  0  0  0  0  0  0
  -37.3620  160.7521   -2.5019 H   0  0  0  0  0  0  0  0  0  0  0  0
  -39.0719  160.7203   -3.5405 H   0  0  0  0  0  0  0  0  0  0  0  0
  -38.6019  161.1233   -5.9629 H   0  0  0  0  0  0  0  0  0  0  0  0
  -38.5854  163.5511   -9.0331 H   0  0  0  0  0  0  0  0  0  0  0  0
  -36.4462  161.8846   -7.5998 H   0  0  0  0  0  0  0  0  0  0  0  0
  -36.9164  159.5441   -8.8200 H   0  0  0  0  0  0  0  0  0  0  0  0
  -36.6962  158.3942  -11.0372 H   0  0  0  0  0  0  0  0  0  0  0  0
  -36.6264  159.7803  -13.1307 H   0  0  0  0  0  0  0  0  0  0  0  0
  -36.7766  162.2369  -12.9372 H   0  0  0  0  0  0  0  0  0  0  0  0
  -38.0900  166.3970   -5.1410 H   0  0  0  0  0  0  0  0  0  0  0  0
  -38.7245  164.9661   -2.7151 H   0  0  0  0  0  0  0  0  0  0  0  0
  1  2  1  0
  2  3  1  0
  3  4  2  0
  3  5  1  0
  5  6  2  0
  6  7  1  0
  7  8  2  0
  8  9  1  0
  9 10  2  0
 10 11  1  0
 11 12  1  0
 12 13  2  0
 13 14  1  0
 14 15  2  0
 15 16  1  0
 16 17  1  0
 17 18  2  0
 18 19  1  0
 19 20  2  0
 20 21  1  0
 21 22  2  0
 22 23  1  0
 23 24  2  0
 16 25  2  0
 25 26  1  0
 26 27  1  0
 27 28  2  0
 10  5  1  0
 28 12  1  0
 27 15  1  0
 24 19  1  0
  1 29  1  0
  1 30  1  0
  1 31  1  0
  2 32  1  0
  6 33  1  0
  7 34  1  0
  8 35  1  0
  9 36  1  0
 13 37  1  0
 14 38  1  0
 17 39  1  0
 18 40  1  0
 20 41  1  0
 21 42  1  0
 22 43  1  0
 23 44  1  0
 26 45  1  0
 28 46  1  0
M  END
>  <meeko>  (5) 
{"is_sidechain": false}

>  <vina_affinity_kcal_mol>  (5) 
-9.262

>  <pose_rank>  (5) 
5

$$$$

     RDKit          3D

 46 49  0  0  0  0  0  0  0  0999 V2000
  -35.8070  152.9030    6.1350 C   0  0  0  0  0  0  0  0  0  0  0  0
  -35.8290  154.3350    5.9810 N   0  0  0  0  0  0  0  0  0  0  0  0
  -36.9170  155.0780    6.3800 C   0  0  0  0  0  0  0  0  0  0  0  0
  -37.8780  154.6160    6.9870 O   0  0  0  0  0  0  0  0  0  0  0  0
  -36.8730  156.5310    6.0690 C   0  0  0  0  0  0  0  0  0  0  0  0
  -36.4110  157.3670    7.0980 C   0  0  0  0  0  0  0  0  0  0  0  0
  -36.3270  158.7450    6.9070 C   0  0  0  0  0  0  0  0  0  0  0  0
  -36.7120  159.2980    5.6890 C   0  0  0  0  0  0  0  0  0  0  0  0
  -37.1910  158.4760    4.6670 C   0  0  0  0  0  0  0  0  0  0  0  0
  -37.2890  157.0850    4.8450 C   0  0  0  0  0  0  0  0  0  0  0  0
  -37.9790  156.1360    3.4900 S   0  0  0  0  0  0  0  0  0  0  0  0
  -38.5860  157.4610    2.4510 C   0  0  0  0  0  0  0  0  0  0  0  0
  -37.7400  158.0100    1.4830 C   0  0  0  0  0  0  0  0  0  0  0  0
  -38.1750  159.0500    0.6480 C   0  0  0  0  0  0  0  0  0  0  0  0
  -39.4880  159.5420    0.7920 C   0  0  0  0  0  0  0  0  0  0  0  0
  -40.2920  160.5480    0.1730 C   0  0  0  0  0  0  0  0  0  0  0  0
  -39.8530  161.4000   -0.8930 C   0  0  0  0  0  0  0  0  0  0  0  0
  -39.5080  160.9750   -2.1220 C   0  0  0  0  0  0  0  0  0  0  0  0
  -39.0620  161.8600   -3.2040 C   0  0  0  0  0  0  0  0  0  0  0  0
  -38.7460  161.3290   -4.4510 C   0  0  0  0  0  0  0  0  0  0  0  0
  -38.3240  162.1880   -5.4630 C   0  0  0  0  0  0  0  0  0  0  0  0
  -38.2300  163.5490   -5.2040 C   0  0  0  0  0  0  0  0  0  0  0  0
  -38.5630  163.9950   -3.9360 C   0  0  0  0  0  0  0  0  0  0  0  0
  -38.9750  163.1850   -2.9360 N   0  0  0  0  0  0  0  0  0  0  0  0
  -41.5180  160.5950    0.7170 N   0  0  0  0  0  0  0  0  0  0  0  0
  -41.4950  159.6430    1.6620 N   0  0  0  0  0  0  0  0  0  0  0  0
  -40.3090  158.9700    1.7560 C   0  0  0  0  0  0  0  0  0  0  0  0
  -39.9000  157.9280    2.5960 C   0  0  0  0  0  0  0  0  0  0  0  0
  -35.8031  152.6493    7.2053 H   0  0  0  0  0  0  0  0  0  0  0  0
  -36.6986  152.4692    5.6586 H   0  0  0  0  0  0  0  0  0  0  0  0
  -34.9025  152.4968    5.6586 H   0  0  0  0  0  0  0  0  0  0  0  0
  -35.1590  154.7610    5.3530 H   0  0  0  0  0  0  0  0  0  0  0  0
  -36.1129  156.9308    8.0628 H   0  0  0  0  0  0  0  0  0  0  0  0
  -35.9579  159.3930    7.7156 H   0  0  0  0  0  0  0  0  0  0  0  0
  -36.6388  160.3842    5.5314 H   0  0  0  0  0  0  0  0  0  0  0  0
  -37.4959  158.9231    3.7093 H   0  0  0  0  0  0  0  0  0  0  0  0
  -36.7171  157.6204    1.3743 H   0  0  0  0  0  0  0  0  0  0  0  0
  -37.5003  159.4759   -0.1092 H   0  0  0  0  0  0  0  0  0  0  0  0
  -39.7939  162.4798   -0.6915 H   0  0  0  0  0  0  0  0  0  0  0  0
  -39.5638  159.8960   -2.3287 H   0  0  0  0  0  0  0  0  0  0  0  0
  -38.8282  160.2475   -4.6346 H   0  0  0  0  0  0  0  0  0  0  0  0
  -38.0679  161.7924   -6.4569 H   0  0  0  0  0  0  0  0  0  0  0  0
  -37.9007  164.2522   -5.9832 H   0  0  0  0  0  0  0  0  0  0  0  0
  -38.4876  165.0730   -3.7306 H   0  0  0  0  0  0  0  0  0  0  0  0
  -42.3300  159.4990    2.2190 H   0  0  0  0  0  0  0  0  0  0  0  0
  -40.5826  157.4925    3.3406 H   0  0  0  0  0  0  0  0  0  0  0  0
  1  2  1  0
  2  3  1  0
  3  4  2  0
  3  5  1  0
  5  6  2  0
  6  7  1  0
  7  8  2  0
  8  9  1  0
  9 10  2  0
 10 11  1  0
 11 12  1  0
 12 13  2  0
 13 14  1  0
 14 15  2  0
 15 16  1  0
 16 17  1  0
 17 18  2  0
 18 19  1  0
 19 20  2  0
 20 21  1  0
 21 22  2  0
 22 23  1  0
 23 24  2  0
 16 25  2  0
 25 26  1  0
 26 27  1  0
 27 28  2  0
 10  5  1  0
 28 12  1  0
 27 15  1  0
 24 19  1  0
  1 29  1  0
  1 30  1  0
  1 31  1  0
  2 32  1  0
  6 33  1  0
  7 34  1  0
  8 35  1  0
  9 36  1  0
 13 37  1  0
 14 38  1  0
 17 39  1  0
 18 40  1  0
 20 41  1  0
 21 42  1  0
 22 43  1  0
 23 44  1  0
 26 45  1  0
 28 46  1  0
M  END
>  <meeko>  (6) 
{"is_sidechain": false}

>  <vina_affinity_kcal_mol>  (6) 
-9.249

>  <pose_rank>  (6) 
6

$$$$

     RDKit          3D

 46 49  0  0  0  0  0  0  0  0999 V2000
  -42.7170  159.9450    1.8480 C   0  0  0  0  0  0  0  0  0  0  0  0
  -41.5130  159.7130    1.0920 N   0  0  0  0  0  0  0  0  0  0  0  0
  -41.3460  160.2490   -0.1650 C   0  0  0  0  0  0  0  0  0  0  0  0
  -42.1280  161.0400   -0.6820 O   0  0  0  0  0  0  0  0  0  0  0  0
  -40.1140  159.8490   -0.8940 C   0  0  0  0  0  0  0  0  0  0  0  0
  -39.8700  158.4680   -0.9780 C   0  0  0  0  0  0  0  0  0  0  0  0
  -38.7450  157.9870   -1.6440 C   0  0  0  0  0  0  0  0  0  0  0  0
  -37.8500  158.8820   -2.2240 C   0  0  0  0  0  0  0  0  0  0  0  0
  -38.0750  160.2570   -2.1270 C   0  0  0  0  0  0  0  0  0  0  0  0
  -39.2000  160.7600   -1.4540 C   0  0  0  0  0  0  0  0  0  0  0  0
  -39.3530  162.5420   -1.3360 S   0  0  0  0  0  0  0  0  0  0  0  0
  -38.9760  163.0040   -3.0240 C   0  0  0  0  0  0  0  0  0  0  0  0
  -38.7410  164.3490   -3.3260 C   0  0  0  0  0  0  0  0  0  0  0  0
  -38.4410  164.7540   -4.6350 C   0  0  0  0  0  0  0  0  0  0  0  0
  -38.3760  163.7840   -5.6560 C   0  0  0  0  0  0  0  0  0  0  0  0
  -38.1160  163.7740   -7.0610 C   0  0  0  0  0  0  0  0  0  0  0  0
  -37.8200  164.9380   -7.8440 C   0  0  0  0  0  0  0  0  0  0  0  0
  -37.4750  164.9200   -9.1440 C   0  0  0  0  0  0  0  0  0  0  0  0
  -37.1760  166.1200   -9.9330 C   0  0  0  0  0  0  0  0  0  0  0  0
  -35.9900  166.1980  -10.6580 C   0  0  0  0  0  0  0  0  0  0  0  0
  -35.7270  167.3480  -11.4000 C   0  0  0  0  0  0  0  0  0  0  0  0
  -36.6520  168.3840  -11.3980 C   0  0  0  0  0  0  0  0  0  0  0  0
  -37.8070  168.2250  -10.6500 C   0  0  0  0  0  0  0  0  0  0  0  0
  -38.0880  167.1220   -9.9220 N   0  0  0  0  0  0  0  0  0  0  0  0
  -38.1820  162.5300   -7.5590 N   0  0  0  0  0  0  0  0  0  0  0  0
  -38.4800  161.7650   -6.4980 N   0  0  0  0  0  0  0  0  0  0  0  0
  -38.6050  162.4560   -5.3240 C   0  0  0  0  0  0  0  0  0  0  0  0
  -38.8980  162.0250   -4.0240 C   0  0  0  0  0  0  0  0  0  0  0  0
  -42.4890  159.9011    2.9232 H   0  0  0  0  0  0  0  0  0  0  0  0
  -43.1208  160.9375    1.5990 H   0  0  0  0  0  0  0  0  0  0  0  0
  -43.4606  159.1736    1.5990 H   0  0  0  0  0  0  0  0  0  0  0  0
  -40.9060  158.9530    1.3770 H   0  0  0  0  0  0  0  0  0  0  0  0
  -40.5731  157.7607   -0.5140 H   0  0  0  0  0  0  0  0  0  0  0  0
  -38.5644  156.9040   -1.7114 H   0  0  0  0  0  0  0  0  0  0  0  0
  -36.9653  158.5060   -2.7588 H   0  0  0  0  0  0  0  0  0  0  0  0
  -37.3600  160.9565   -2.5848 H   0  0  0  0  0  0  0  0  0  0  0  0
  -38.7922  165.1009   -2.5248 H   0  0  0  0  0  0  0  0  0  0  0  0
  -38.2588  165.8148   -4.8620 H   0  0  0  0  0  0  0  0  0  0  0  0
  -37.8793  165.9168   -7.3455 H   0  0  0  0  0  0  0  0  0  0  0  0
  -37.4132  163.9438   -9.6472 H   0  0  0  0  0  0  0  0  0  0  0  0
  -35.2718  165.3650  -10.6454 H   0  0  0  0  0  0  0  0  0  0  0  0
  -34.7969  167.4342  -11.9809 H   0  0  0  0  0  0  0  0  0  0  0  0
  -36.4726  169.3040  -11.9737 H   0  0  0  0  0  0  0  0  0  0  0  0
  -38.5392  169.0459  -10.6486 H   0  0  0  0  0  0  0  0  0  0  0  0
  -38.5880  160.7670   -6.6390 H   0  0  0  0  0  0  0  0  0  0  0  0
  -39.0604  160.9610   -3.7969 H   0  0  0  0  0  0  0  0  0  0  0  0
  1  2  1  0
  2  3  1  0
  3  4  2  0
  3  5  1  0
  5  6  2  0
  6  7  1  0
  7  8  2  0
  8  9  1  0
  9 10  2  0
 10 11  1  0
 11 12  1  0
 12 13  2  0
 13 14  1  0
 14 15  2  0
 15 16  1  0
 16 17  1  0
 17 18  2  0
 18 19  1  0
 19 20  2  0
 20 21  1  0
 21 22  2  0
 22 23  1  0
 23 24  2  0
 16 25  2  0
 25 26  1  0
 26 27  1  0
 27 28  2  0
 10  5  1  0
 28 12  1  0
 27 15  1  0
 24 19  1  0
  1 29  1  0
  1 30  1  0
  1 31  1  0
  2 32  1  0
  6 33  1  0
  7 34  1  0
  8 35  1  0
  9 36  1  0
 13 37  1  0
 14 38  1  0
 17 39  1  0
 18 40  1  0
 20 41  1  0
 21 42  1  0
 22 43  1  0
 23 44  1  0
 26 45  1  0
 28 46  1  0
M  END
>  <meeko>  (7) 
{"is_sidechain": false}

>  <vina_affinity_kcal_mol>  (7) 
-9.172

>  <pose_rank>  (7) 
7

$$$$

     RDKit          3D

 46 49  0  0  0  0  0  0  0  0999 V2000
  -35.3370  168.0360  -11.0240 C   0  0  0  0  0  0  0  0  0  0  0  0
  -35.9030  166.7330  -10.7870 N   0  0  0  0  0  0  0  0  0  0  0  0
  -37.1650  166.5890  -10.2580 C   0  0  0  0  0  0  0  0  0  0  0  0
  -37.9350  167.5230  -10.0590 O   0  0  0  0  0  0  0  0  0  0  0  0
  -37.5980  165.2010   -9.9520 C   0  0  0  0  0  0  0  0  0  0  0  0
  -37.7240  164.3390  -11.0540 C   0  0  0  0  0  0  0  0  0  0  0  0
  -38.1200  163.0150  -10.8760 C   0  0  0  0  0  0  0  0  0  0  0  0
  -38.4000  162.5440   -9.5960 C   0  0  0  0  0  0  0  0  0  0  0  0
  -38.2960  163.4000   -8.4980 C   0  0  0  0  0  0  0  0  0  0  0  0
  -37.9060  164.7400   -8.6600 C   0  0  0  0  0  0  0  0  0  0  0  0
  -37.8690  165.7630   -7.1880 S   0  0  0  0  0  0  0  0  0  0  0  0
  -38.2100  164.5300   -5.9360 C   0  0  0  0  0  0  0  0  0  0  0  0
  -39.0630  164.8540   -4.8760 C   0  0  0  0  0  0  0  0  0  0  0  0
  -39.3580  163.9170   -3.8740 C   0  0  0  0  0  0  0  0  0  0  0  0
  -38.7830  162.6320   -3.9450 C   0  0  0  0  0  0  0  0  0  0  0  0
  -38.8200  161.4360   -3.1640 C   0  0  0  0  0  0  0  0  0  0  0  0
  -39.5690  161.2750   -1.9530 C   0  0  0  0  0  0  0  0  0  0  0  0
  -39.9990  160.0960   -1.4680 C   0  0  0  0  0  0  0  0  0  0  0  0
  -40.7640  159.9470   -0.2250 C   0  0  0  0  0  0  0  0  0  0  0  0
  -42.0070  160.5620   -0.0960 C   0  0  0  0  0  0  0  0  0  0  0  0
  -42.7150  160.4070    1.0940 C   0  0  0  0  0  0  0  0  0  0  0  0
  -42.1670  159.6460    2.1180 C   0  0  0  0  0  0  0  0  0  0  0  0
  -40.9260  159.0690    1.9070 C   0  0  0  0  0  0  0  0  0  0  0  0
  -40.2170  159.2020    0.7640 N   0  0  0  0  0  0  0  0  0  0  0  0
  -38.0600  160.4740   -3.7110 N   0  0  0  0  0  0  0  0  0  0  0  0
  -37.5490  161.0450   -4.8130 N   0  0  0  0  0  0  0  0  0  0  0  0
  -37.9480  162.3370   -5.0150 C   0  0  0  0  0  0  0  0  0  0  0  0
  -37.6450  163.2510   -6.0310 C   0  0  0  0  0  0  0  0  0  0  0  0
  -35.1249  168.5242  -10.0614 H   0  0  0  0  0  0  0  0  0  0  0  0
  -34.4031  167.9316  -11.5958 H   0  0  0  0  0  0  0  0  0  0  0  0
  -36.0507  168.6473  -11.5958 H   0  0  0  0  0  0  0  0  0  0  0  0
  -35.2790  165.9340  -10.7710 H   0  0  0  0  0  0  0  0  0  0  0  0
  -37.5082  164.7124  -12.0659 H   0  0  0  0  0  0  0  0  0  0  0  0
  -38.2110  162.3445  -11.7433 H   0  0  0  0  0  0  0  0  0  0  0  0
  -38.7033  161.4968   -9.4498 H   0  0  0  0  0  0  0  0  0  0  0  0
  -38.5228  163.0196   -7.4911 H   0  0  0  0  0  0  0  0  0  0  0  0
  -39.5092  165.8582   -4.8271 H   0  0  0  0  0  0  0  0  0  0  0  0
  -40.0293  164.1818   -3.0438 H   0  0  0  0  0  0  0  0  0  0  0  0
  -39.8099  162.1813   -1.3781 H   0  0  0  0  0  0  0  0  0  0  0  0
  -39.7621  159.1864   -2.0394 H   0  0  0  0  0  0  0  0  0  0  0  0
  -42.4229  161.1603   -0.9201 H   0  0  0  0  0  0  0  0  0  0  0  0
  -43.6986  160.8829    1.2210 H   0  0  0  0  0  0  0  0  0  0  0  0
  -42.7027  159.5057    3.0684 H   0  0  0  0  0  0  0  0  0  0  0  0
  -40.4912  158.4664    2.7181 H   0  0  0  0  0  0  0  0  0  0  0  0
  -36.9270  160.4950   -5.3950 H   0  0  0  0  0  0  0  0  0  0  0  0
  -36.9895  162.9763   -6.8706 H   0  0  0  0  0  0  0  0  0  0  0  0
  1  2  1  0
  2  3  1  0
  3  4  2  0
  3  5  1  0
  5  6  2  0
  6  7  1  0
  7  8  2  0
  8  9  1  0
  9 10  2  0
 10 11  1  0
 11 12  1  0
 12 13  2  0
 13 14  1  0
 14 15  2  0
 15 16  1  0
 16 17  1  0
 17 18  2  0
 18 19  1  0
 19 20  2  0
 20 21  1  0
 21 22  2  0
 22 23  1  0
 23 24  2  0
 16 25  2  0
 25 26  1  0
 26 27  1  0
 27 28  2  0
 10  5  1  0
 28 12  1  0
 27 15  1  0
 24 19  1  0
  1 29  1  0
  1 30  1  0
  1 31  1  0
  2 32  1  0
  6 33  1  0
  7 34  1  0
  8 35  1  0
  9 36  1  0
 13 37  1  0
 14 38  1  0
 17 39  1  0
 18 40  1  0
 20 41  1  0
 21 42  1  0
 22 43  1  0
 23 44  1  0
 26 45  1  0
 28 46  1  0
M  END
>  <meeko>  (8) 
{"is_sidechain": false}

>  <vina_affinity_kcal_mol>  (8) 
-9.002

>  <pose_rank>  (8) 
8

$$$$

     RDKit          3D

 46 49  0  0  0  0  0  0  0  0999 V2000
  -34.3970  148.5420    2.3410 C   0  0  0  0  0  0  0  0  0  0  0  0
  -35.5050  149.1790    3.0040 N   0  0  0  0  0  0  0  0  0  0  0  0
  -35.6480  149.1180    4.3730 C   0  0  0  0  0  0  0  0  0  0  0  0
  -34.8120  148.6340    5.1280 O   0  0  0  0  0  0  0  0  0  0  0  0
  -36.8880  149.7150    4.9330 C   0  0  0  0  0  0  0  0  0  0  0  0
  -38.0920  149.0970    4.5590 C   0  0  0  0  0  0  0  0  0  0  0  0
  -39.3120  149.5760    5.0340 C   0  0  0  0  0  0  0  0  0  0  0  0
  -39.3370  150.6820    5.8780 C   0  0  0  0  0  0  0  0  0  0  0  0
  -38.1460  151.3160    6.2390 C   0  0  0  0  0  0  0  0  0  0  0  0
  -36.9080  150.8500    5.7640 C   0  0  0  0  0  0  0  0  0  0  0  0
  -35.4500  151.7780    6.2400 S   0  0  0  0  0  0  0  0  0  0  0  0
  -35.8880  153.3970    5.6140 C   0  0  0  0  0  0  0  0  0  0  0  0
  -37.1980  153.6310    5.1860 C   0  0  0  0  0  0  0  0  0  0  0  0
  -37.5840  154.8840    4.6890 C   0  0  0  0  0  0  0  0  0  0  0  0
  -36.6300  155.9200    4.6240 C   0  0  0  0  0  0  0  0  0  0  0  0
  -36.6090  157.2850    4.2010 C   0  0  0  0  0  0  0  0  0  0  0  0
  -37.7370  157.9910    3.6690 C   0  0  0  0  0  0  0  0  0  0  0  0
  -38.1900  157.8730    2.4080 C   0  0  0  0  0  0  0  0  0  0  0  0
  -39.3470  158.6020    1.8780 C   0  0  0  0  0  0  0  0  0  0  0  0
  -40.6060  158.4140    2.4410 C   0  0  0  0  0  0  0  0  0  0  0  0
  -41.6900  159.1170    1.9210 C   0  0  0  0  0  0  0  0  0  0  0  0
  -41.4890  159.9860    0.8560 C   0  0  0  0  0  0  0  0  0  0  0  0
  -40.2050  160.1150    0.3540 C   0  0  0  0  0  0  0  0  0  0  0  0
  -39.1360  159.4470    0.8390 N   0  0  0  0  0  0  0  0  0  0  0  0
  -35.3920  157.8270    4.3660 N   0  0  0  0  0  0  0  0  0  0  0  0
  -34.6550  156.8300    4.8800 N   0  0  0  0  0  0  0  0  0  0  0  0
  -35.3390  155.6610    5.0650 C   0  0  0  0  0  0  0  0  0  0  0  0
  -34.9320  154.4210    5.5720 C   0  0  0  0  0  0  0  0  0  0  0  0
  -33.7008  148.1418    3.0928 H   0  0  0  0  0  0  0  0  0  0  0  0
  -34.7695  147.7202    1.7119 H   0  0  0  0  0  0  0  0  0  0  0  0
  -33.8742  149.2774    1.7119 H   0  0  0  0  0  0  0  0  0  0  0  0
  -36.3070  149.4510    2.4480 H   0  0  0  0  0  0  0  0  0  0  0  0
  -38.0725  148.2275    3.8855 H   0  0  0  0  0  0  0  0  0  0  0  0
  -40.2507  149.0819    4.7429 H   0  0  0  0  0  0  0  0  0  0  0  0
  -40.2969  151.0579    6.2618 H   0  0  0  0  0  0  0  0  0  0  0  0
  -38.1773  152.1917    6.9039 H   0  0  0  0  0  0  0  0  0  0  0  0
  -37.9381  152.8190    5.2400 H   0  0  0  0  0  0  0  0  0  0  0  0
  -38.6175  155.0564    4.3542 H   0  0  0  0  0  0  0  0  0  0  0  0
  -38.2711  158.6793    4.3406 H   0  0  0  0  0  0  0  0  0  0  0  0
  -37.6593  157.1866    1.7318 H   0  0  0  0  0  0  0  0  0  0  0  0
  -40.7427  157.7206    3.2839 H   0  0  0  0  0  0  0  0  0  0  0  0
  -42.6947  158.9855    2.3491 H   0  0  0  0  0  0  0  0  0  0  0  0
  -42.3255  160.5550    0.4241 H   0  0  0  0  0  0  0  0  0  0  0  0
  -40.0462  160.8024   -0.4900 H   0  0  0  0  0  0  0  0  0  0  0  0
  -33.6780  157.0110    5.0850 H   0  0  0  0  0  0  0  0  0  0  0  0
  -33.9026  154.2570    5.9235 H   0  0  0  0  0  0  0  0  0  0  0  0
  1  2  1  0
  2  3  1  0
  3  4  2  0
  3  5  1  0
  5  6  2  0
  6  7  1  0
  7  8  2  0
  8  9  1  0
  9 10  2  0
 10 11  1  0
 11 12  1  0
 12 13  2  0
 13 14  1  0
 14 15  2  0
 15 16  1  0
 16 17  1  0
 17 18  2  0
 18 19  1  0
 19 20  2  0
 20 21  1  0
 21 22  2  0
 22 23  1  0
 23 24  2  0
 16 25  2  0
 25 26  1  0
 26 27  1  0
 27 28  2  0
 10  5  1  0
 28 12  1  0
 27 15  1  0
 24 19  1  0
  1 29  1  0
  1 30  1  0
  1 31  1  0
  2 32  1  0
  6 33  1  0
  7 34  1  0
  8 35  1  0
  9 36  1  0
 13 37  1  0
 14 38  1  0
 17 39  1  0
 18 40  1  0
 20 41  1  0
 21 42  1  0
 22 43  1  0
 23 44  1  0
 26 45  1  0
 28 46  1  0
M  END
>  <meeko>  (9) 
{"is_sidechain": false}

>  <vina_affinity_kcal_mol>  (9) 
-8.852

>  <pose_rank>  (9) 
9

$$$$

     RDKit          3D

 46 49  0  0  0  0  0  0  0  0999 V2000
  -33.3760  148.0320    9.6200 C   0  0  0  0  0  0  0  0  0  0  0  0
  -34.0320  148.5800    8.4610 N   0  0  0  0  0  0  0  0  0  0  0  0
  -35.3530  148.9670    8.5050 C   0  0  0  0  0  0  0  0  0  0  0  0
  -36.0260  148.9890    9.5300 O   0  0  0  0  0  0  0  0  0  0  0  0
  -35.9530  149.4120    7.2200 C   0  0  0  0  0  0  0  0  0  0  0  0
  -36.3080  148.3930    6.3220 C   0  0  0  0  0  0  0  0  0  0  0  0
  -36.8820  148.7020    5.0900 C   0  0  0  0  0  0  0  0  0  0  0  0
  -37.0980  150.0330    4.7440 C   0  0  0  0  0  0  0  0  0  0  0  0
  -36.7300  151.0530    5.6240 C   0  0  0  0  0  0  0  0  0  0  0  0
  -36.1430  150.7590    6.8660 C   0  0  0  0  0  0  0  0  0  0  0  0
  -35.6520  152.1500    7.8850 S   0  0  0  0  0  0  0  0  0  0  0  0
  -36.0980  153.5060    6.8070 C   0  0  0  0  0  0  0  0  0  0  0  0
  -37.4500  153.7790    6.5780 C   0  0  0  0  0  0  0  0  0  0  0  0
  -37.8430  154.8330    5.7410 C   0  0  0  0  0  0  0  0  0  0  0  0
  -36.8540  155.6260    5.1250 C   0  0  0  0  0  0  0  0  0  0  0  0
  -36.8270  156.7460    4.2380 C   0  0  0  0  0  0  0  0  0  0  0  0
  -37.9910  157.3940    3.7070 C   0  0  0  0  0  0  0  0  0  0  0  0
  -38.0580  157.9780    2.4970 C   0  0  0  0  0  0  0  0  0  0  0  0
  -39.2570  158.6370    1.9660 C   0  0  0  0  0  0  0  0  0  0  0  0
  -39.1430  159.5560    0.9270 C   0  0  0  0  0  0  0  0  0  0  0  0
  -40.2950  160.1700    0.4400 C   0  0  0  0  0  0  0  0  0  0  0  0
  -41.5250  159.8500    1.0010 C   0  0  0  0  0  0  0  0  0  0  0  0
  -41.5500  158.9250    2.0310 C   0  0  0  0  0  0  0  0  0  0  0  0
  -40.4500  158.3140    2.5230 N   0  0  0  0  0  0  0  0  0  0  0  0
  -35.5680  157.1190    3.9610 N   0  0  0  0  0  0  0  0  0  0  0  0
  -34.8100  156.2550    4.6540 N   0  0  0  0  0  0  0  0  0  0  0  0
  -35.5200  155.3370    5.3780 C   0  0  0  0  0  0  0  0  0  0  0  0
  -35.1020  154.2960    6.2150 C   0  0  0  0  0  0  0  0  0  0  0  0
  -33.8495  148.4276   10.5307 H   0  0  0  0  0  0  0  0  0  0  0  0
  -33.4645  146.9356    9.6073 H   0  0  0  0  0  0  0  0  0  0  0  0
  -32.3129  148.3142    9.6073 H   0  0  0  0  0  0  0  0  0  0  0  0
  -33.6000  148.4430    7.5540 H   0  0  0  0  0  0  0  0  0  0  0  0
  -36.1316  147.3416    6.5930 H   0  0  0  0  0  0  0  0  0  0  0  0
  -37.1631  147.8977    4.3942 H   0  0  0  0  0  0  0  0  0  0  0  0
  -37.5589  150.2815    3.7766 H   0  0  0  0  0  0  0  0  0  0  0  0
  -36.9022  152.1018    5.3406 H   0  0  0  0  0  0  0  0  0  0  0  0
  -38.2174  153.1571    7.0621 H   0  0  0  0  0  0  0  0  0  0  0  0
  -38.9096  155.0383    5.5673 H   0  0  0  0  0  0  0  0  0  0  0  0
  -38.8943  157.4150    4.3345 H   0  0  0  0  0  0  0  0  0  0  0  0
  -37.1573  157.9605    1.8658 H   0  0  0  0  0  0  0  0  0  0  0  0
  -38.1588  159.7939    0.4971 H   0  0  0  0  0  0  0  0  0  0  0  0
  -40.2313  160.9004   -0.3800 H   0  0  0  0  0  0  0  0  0  0  0  0
  -42.4519  160.3178    0.6376 H   0  0  0  0  0  0  0  0  0  0  0  0
  -42.5240  158.6724    2.4754 H   0  0  0  0  0  0  0  0  0  0  0  0
  -33.8020  156.3430    4.5920 H   0  0  0  0  0  0  0  0  0  0  0  0
  -34.0348  154.1052    6.4010 H   0  0  0  0  0  0  0  0  0  0  0  0
  1  2  1  0
  2  3  1  0
  3  4  2  0
  3  5  1  0
  5  6  2  0
  6  7  1  0
  7  8  2  0
  8  9  1  0
  9 10  2  0
 10 11  1  0
 11 12  1  0
 12 13  2  0
 13 14  1  0
 14 15  2  0
 15 16  1  0
 16 17  1  0
 17 18  2  0
 18 19  1  0
 19 20  2  0
 20 21  1  0
 21 22  2  0
 22 23  1  0
 23 24  2  0
 16 25  2  0
 25 26  1  0
 26 27  1  0
 27 28  2  0
 10  5  1  0
 28 12  1  0
 27 15  1  0
 24 19  1  0
  1 29  1  0
  1 30  1  0
  1 31  1  0
  2 32  1  0
  6 33  1  0
  7 34  1  0
  8 35  1  0
  9 36  1  0
 13 37  1  0
 14 38  1  0
 17 39  1  0
 18 40  1  0
 20 41  1  0
 21 42  1  0
 22 43  1  0
 23 44  1  0
 26 45  1  0
 28 46  1  0
M  END
>  <meeko>  (10) 
{"is_sidechain": false}

>  <vina_affinity_kcal_mol>  (10) 
-8.596

>  <pose_rank>  (10) 
10

$$$$
