
     RDKit          3D

 62 67  0  0  0  0  0  0  0  0999 V2000
  -41.0480  160.5520   -0.0770 C   0  0  0  0  0  0  0  0  0  0  0  0
  -39.5880  160.1580    0.1520 C   0  0  0  0  0  0  0  0  0  0  0  0
  -38.6360  161.2840   -0.2490 C   0  0  0  0  0  0  0  0  0  0  0  0
  -39.3680  162.3340   -0.8840 O   0  0  0  0  0  0  0  0  0  0  0  0
  -39.0550  162.6170   -2.1860 C   0  0  0  0  0  0  0  0  0  0  0  0
  -38.9760  161.4990   -3.0170 C   0  0  0  0  0  0  0  0  0  0  0  0
  -38.6630  161.6070   -4.3790 C   0  0  0  0  0  0  0  0  0  0  0  0
  -38.4050  162.8870   -4.8930 C   0  0  0  0  0  0  0  0  0  0  0  0
  -38.5280  164.0200   -4.0820 C   0  0  0  0  0  0  0  0  0  0  0  0
  -38.8390  163.8890   -2.7170 C   0  0  0  0  0  0  0  0  0  0  0  0
  -38.3370  165.1720   -4.7910 N   0  0  0  0  0  0  0  0  0  0  0  0
  -38.1080  164.7740   -6.0200 C   0  0  0  0  0  0  0  0  0  0  0  0
  -38.0650  163.3990   -6.1440 N   0  0  0  0  0  0  0  0  0  0  0  0
  -37.7200  162.7460   -7.3630 C   0  0  0  0  0  0  0  0  0  0  0  0
  -37.6420  161.3690   -7.4560 C   0  0  0  0  0  0  0  0  0  0  0  0
  -37.2870  160.8060   -8.6790 C   0  0  0  0  0  0  0  0  0  0  0  0
  -37.0090  161.6230   -9.7810 C   0  0  0  0  0  0  0  0  0  0  0  0
  -36.6440  161.0550  -11.0120 C   0  0  0  0  0  0  0  0  0  0  0  0
  -36.3510  161.8640  -12.1030 C   0  0  0  0  0  0  0  0  0  0  0  0
  -36.4270  163.2440  -11.9660 C   0  0  0  0  0  0  0  0  0  0  0  0
  -36.7990  163.8360  -10.7450 C   0  0  0  0  0  0  0  0  0  0  0  0
  -36.8420  165.2600  -10.7430 N   0  0  0  0  0  0  0  0  0  0  0  0
  -37.9920  165.7690  -11.5160 C   0  0  0  0  0  0  0  0  0  0  0  0
  -37.8500  167.2720  -11.7940 C   0  0  0  0  0  0  0  0  0  0  0  0
  -37.0170  167.9510  -10.7070 C   0  0  0  0  0  0  0  0  0  0  0  0
  -36.9470  169.4000  -10.9250 N   0  0  0  0  0  0  0  0  0  0  0  0
  -35.6010  167.3560  -10.6430 C   0  0  0  0  0  0  0  0  0  0  0  0
  -35.5650  165.8910  -11.0940 C   0  0  0  0  0  0  0  0  0  0  0  0
  -37.0920  163.0220   -9.6200 C   0  0  0  0  0  0  0  0  0  0  0  0
  -37.4300  163.5520   -8.4180 N   0  0  0  0  0  0  0  0  0  0  0  0
  -39.3500  159.5110    1.5310 C   0  0  0  0  0  0  0  0  0  0  0  0
  -39.4290  158.1820    0.9470 O   0  0  0  0  0  0  0  0  0  0  0  0
  -39.2550  158.7490   -0.3800 C   0  0  0  0  0  0  0  0  0  0  0  0
  -41.5479  160.6869    0.8935 H   0  0  0  0  0  0  0  0  0  0  0  0
  -41.0891  161.4934   -0.6446 H   0  0  0  0  0  0  0  0  0  0  0  0
  -41.5571  159.7591   -0.6446 H   0  0  0  0  0  0  0  0  0  0  0  0
  -38.1375  161.6778    0.6490 H   0  0  0  0  0  0  0  0  0  0  0  0
  -37.8836  160.8913   -0.9488 H   0  0  0  0  0  0  0  0  0  0  0  0
  -39.1650  160.5028   -2.5904 H   0  0  0  0  0  0  0  0  0  0  0  0
  -38.6210  160.7171   -5.0242 H   0  0  0  0  0  0  0  0  0  0  0  0
  -38.9112  164.7793   -2.0750 H   0  0  0  0  0  0  0  0  0  0  0  0
  -37.9650  165.4641   -6.8646 H   0  0  0  0  0  0  0  0  0  0  0  0
  -37.8554  160.7330   -6.5843 H   0  0  0  0  0  0  0  0  0  0  0  0
  -37.2246  159.7124   -8.7798 H   0  0  0  0  0  0  0  0  0  0  0  0
  -36.5896  159.9610  -11.1135 H   0  0  0  0  0  0  0  0  0  0  0  0
  -36.0619  161.4161  -13.0652 H   0  0  0  0  0  0  0  0  0  0  0  0
  -36.1921  163.8859  -12.8278 H   0  0  0  0  0  0  0  0  0  0  0  0
  -38.0478  165.2304  -12.4735 H   0  0  0  0  0  0  0  0  0  0  0  0
  -38.9072  165.6077  -10.9274 H   0  0  0  0  0  0  0  0  0  0  0  0
  -37.3566  167.4133  -12.7669 H   0  0  0  0  0  0  0  0  0  0  0  0
  -38.8527  167.7243  -11.8026 H   0  0  0  0  0  0  0  0  0  0  0  0
  -37.5159  167.7668   -9.7441 H   0  0  0  0  0  0  0  0  0  0  0  0
  -36.0150  169.6510  -11.2540 H   0  0  0  0  0  0  0  0  0  0  0  0
  -37.5920  169.6610  -11.6700 H   0  0  0  0  0  0  0  0  0  0  0  0
  -34.9403  167.9439  -11.2971 H   0  0  0  0  0  0  0  0  0  0  0  0
  -35.2667  167.3942   -9.5957 H   0  0  0  0  0  0  0  0  0  0  0  0
  -35.4148  165.8423  -12.1826 H   0  0  0  0  0  0  0  0  0  0  0  0
  -34.7373  165.3653  -10.5954 H   0  0  0  0  0  0  0  0  0  0  0  0
  -38.3696  159.7469    1.9705 H   0  0  0  0  0  0  0  0  0  0  0  0
  -39.9966  159.7763    2.3804 H   0  0  0  0  0  0  0  0  0  0  0  0
  -38.2331  158.6521   -0.7755 H   0  0  0  0  0  0  0  0  0  0  0  0
  -39.8171  158.3367   -1.2309 H   0  0  0  0  0  0  0  0  0  0  0  0
  1  2  1  0
  2  3  1  0
  3  4  1  0
  4  5  1  0
  5  6  2  0
  6  7  1  0
  7  8  2  0
  8  9  1  0
  9 10  2  0
  9 11  1  0
 11 12  2  0
 12 13  1  0
 13 14  1  0
 14 15  1  0
 15 16  2  0
 16 17  1  0
 17 18  2  0
 18 19  1  0
 19 20  2  0
 20 21  1  0
 21 22  1  0
 22 23  1  0
 23 24  1  0
 24 25  1  0
 25 26  1  0
 25 27  1  0
 27 28  1  0
 21 29  2  0
 29 30  1  0
  2 31  1  0
 31 32  1  0
 32 33  1  0
 33  2  1  0
 10  5  1  0
 30 14  2  0
 13  8  1  0
 29 17  1  0
 28 22  1  0
  1 34  1  0
  1 35  1  0
  1 36  1  0
  3 37  1  0
  3 38  1  0
  6 39  1  0
  7 40  1  0
 10 41  1  0
 12 42  1  0
 15 43  1  0
 16 44  1  0
 18 45  1  0
 19 46  1  0
 20 47  1  0
 23 48  1  0
 23 49  1  0
 24 50  1  0
 24 51  1  0
 25 52  1  0
 26 53  1  0
 26 54  1  0
 27 55  1  0
 27 56  1  0
 28 57  1  0
 28 58  1  0
 31 59  1  0
 31 60  1  0
 33 61  1  0
 33 62  1  0
M  END
>  <meeko>  (1) 
{"is_sidechain": false}

>  <vina_affinity_kcal_mol>  (1) 
-10.097

>  <pose_rank>  (1) 
1

$$$$

     RDKit          3D

 62 67  0  0  0  0  0  0  0  0999 V2000
  -38.4490  158.3740    0.4730 C   0  0  0  0  0  0  0  0  0  0  0  0
  -38.8560  159.5340   -0.4380 C   0  0  0  0  0  0  0  0  0  0  0  0
  -38.2400  159.3960   -1.8280 C   0  0  0  0  0  0  0  0  0  0  0  0
  -39.2210  159.6870   -2.8250 O   0  0  0  0  0  0  0  0  0  0  0  0
  -39.0260  160.8080   -3.5860 C   0  0  0  0  0  0  0  0  0  0  0  0
  -38.8910  160.5630   -4.9530 C   0  0  0  0  0  0  0  0  0  0  0  0
  -38.6830  161.5960   -5.8770 C   0  0  0  0  0  0  0  0  0  0  0  0
  -38.5900  162.9070   -5.3840 C   0  0  0  0  0  0  0  0  0  0  0  0
  -38.7710  163.1720   -4.0220 C   0  0  0  0  0  0  0  0  0  0  0  0
  -38.9760  162.1190   -3.1120 C   0  0  0  0  0  0  0  0  0  0  0  0
  -38.7460  164.5130   -3.7610 N   0  0  0  0  0  0  0  0  0  0  0  0
  -38.5610  165.0770   -4.9300 C   0  0  0  0  0  0  0  0  0  0  0  0
  -38.3890  164.1630   -5.9510 N   0  0  0  0  0  0  0  0  0  0  0  0
  -38.0620  164.5500   -7.2840 C   0  0  0  0  0  0  0  0  0  0  0  0
  -38.0630  165.8740   -7.6800 C   0  0  0  0  0  0  0  0  0  0  0  0
  -37.7440  166.1700   -9.0030 C   0  0  0  0  0  0  0  0  0  0  0  0
  -37.4410  165.1440   -9.9050 C   0  0  0  0  0  0  0  0  0  0  0  0
  -37.1270  165.4430  -11.2410 C   0  0  0  0  0  0  0  0  0  0  0  0
  -36.8430  164.4260  -12.1430 C   0  0  0  0  0  0  0  0  0  0  0  0
  -36.8670  163.1060  -11.7110 C   0  0  0  0  0  0  0  0  0  0  0  0
  -37.1690  162.7830  -10.3750 C   0  0  0  0  0  0  0  0  0  0  0  0
  -37.1550  161.3920  -10.0630 N   0  0  0  0  0  0  0  0  0  0  0  0
  -36.4250  161.1260   -8.8090 C   0  0  0  0  0  0  0  0  0  0  0  0
  -36.1230  159.6290   -8.6520 C   0  0  0  0  0  0  0  0  0  0  0  0
  -37.1640  158.7830   -9.3840 C   0  0  0  0  0  0  0  0  0  0  0  0
  -36.9260  157.3510   -9.1690 N   0  0  0  0  0  0  0  0  0  0  0  0
  -37.1760  159.0980  -10.8880 C   0  0  0  0  0  0  0  0  0  0  0  0
  -36.7430  160.5400  -11.1830 C   0  0  0  0  0  0  0  0  0  0  0  0
  -37.4710  163.8110   -9.4450 C   0  0  0  0  0  0  0  0  0  0  0  0
  -37.7930  163.5420   -8.1550 N   0  0  0  0  0  0  0  0  0  0  0  0
  -40.3650  159.8420   -0.3780 C   0  0  0  0  0  0  0  0  0  0  0  0
  -40.1340  160.9110    0.5790 O   0  0  0  0  0  0  0  0  0  0  0  0
  -38.7190  160.9110    0.2450 C   0  0  0  0  0  0  0  0  0  0  0  0
  -38.5559  158.6787    1.5245 H   0  0  0  0  0  0  0  0  0  0  0  0
  -39.0967  157.5073    0.2747 H   0  0  0  0  0  0  0  0  0  0  0  0
  -37.4018  158.1020    0.2747 H   0  0  0  0  0  0  0  0  0  0  0  0
  -37.4001  160.0994   -1.9263 H   0  0  0  0  0  0  0  0  0  0  0  0
  -37.8796  158.3657   -1.9640 H   0  0  0  0  0  0  0  0  0  0  0  0
  -38.9497  159.5266   -5.3168 H   0  0  0  0  0  0  0  0  0  0  0  0
  -38.5955  161.3863   -6.9533 H   0  0  0  0  0  0  0  0  0  0  0  0
  -39.0956  162.3271   -2.0385 H   0  0  0  0  0  0  0  0  0  0  0  0
  -38.5445  166.1663   -5.0820 H   0  0  0  0  0  0  0  0  0  0  0  0
  -38.3098  166.6748   -6.9674 H   0  0  0  0  0  0  0  0  0  0  0  0
  -37.7302  167.2167   -9.3409 H   0  0  0  0  0  0  0  0  0  0  0  0
  -37.1059  166.4907  -11.5754 H   0  0  0  0  0  0  0  0  0  0  0  0
  -36.6014  164.6634  -13.1895 H   0  0  0  0  0  0  0  0  0  0  0  0
  -36.6462  162.2993  -12.4255 H   0  0  0  0  0  0  0  0  0  0  0  0
  -35.4774  161.6845   -8.8196 H   0  0  0  0  0  0  0  0  0  0  0  0
  -37.0531  161.4461   -7.9646 H   0  0  0  0  0  0  0  0  0  0  0  0
  -35.1279  159.4166   -9.0699 H   0  0  0  0  0  0  0  0  0  0  0  0
  -36.1527  159.3748   -7.5822 H   0  0  0  0  0  0  0  0  0  0  0  0
  -38.1493  159.0392   -8.9675 H   0  0  0  0  0  0  0  0  0  0  0  0
  -36.9790  156.8600  -10.0610 H   0  0  0  0  0  0  0  0  0  0  0  0
  -35.9760  157.2160   -8.8250 H   0  0  0  0  0  0  0  0  0  0  0  0
  -36.4868  158.4098  -11.3993 H   0  0  0  0  0  0  0  0  0  0  0  0
  -38.2074  158.9750  -11.2499 H   0  0  0  0  0  0  0  0  0  0  0  0
  -35.6498  160.5823  -11.2979 H   0  0  0  0  0  0  0  0  0  0  0  0
  -37.2135  160.8901  -12.1136 H   0  0  0  0  0  0  0  0  0  0  0  0
  -40.7880  160.1840   -1.3341 H   0  0  0  0  0  0  0  0  0  0  0  0
  -41.0792  159.0395   -0.1414 H   0  0  0  0  0  0  0  0  0  0  0  0
  -38.4225  161.7201   -0.4388 H   0  0  0  0  0  0  0  0  0  0  0  0
  -37.9684  161.0595    1.0353 H   0  0  0  0  0  0  0  0  0  0  0  0
  1  2  1  0
  2  3  1  0
  3  4  1  0
  4  5  1  0
  5  6  2  0
  6  7  1  0
  7  8  2  0
  8  9  1  0
  9 10  2  0
  9 11  1  0
 11 12  2  0
 12 13  1  0
 13 14  1  0
 14 15  1  0
 15 16  2  0
 16 17  1  0
 17 18  2  0
 18 19  1  0
 19 20  2  0
 20 21  1  0
 21 22  1  0
 22 23  1  0
 23 24  1  0
 24 25  1  0
 25 26  1  0
 25 27  1  0
 27 28  1  0
 21 29  2  0
 29 30  1  0
  2 31  1  0
 31 32  1  0
 32 33  1  0
 33  2  1  0
 10  5  1  0
 30 14  2  0
 13  8  1  0
 29 17  1  0
 28 22  1  0
  1 34  1  0
  1 35  1  0
  1 36  1  0
  3 37  1  0
  3 38  1  0
  6 39  1  0
  7 40  1  0
 10 41  1  0
 12 42  1  0
 15 43  1  0
 16 44  1  0
 18 45  1  0
 19 46  1  0
 20 47  1  0
 23 48  1  0
 23 49  1  0
 24 50  1  0
 24 51  1  0
 25 52  1  0
 26 53  1  0
 26 54  1  0
 27 55  1  0
 27 56  1  0
 28 57  1  0
 28 58  1  0
 31 59  1  0
 31 60  1  0
 33 61  1  0
 33 62  1  0
M  END
>  <meeko>  (2) 
{"is_sidechain": false}

>  <vina_affinity_kcal_mol>  (2) 
-9.027

>  <pose_rank>  (2) 
2

$$$$

     RDKit          3D

 62 67  0  0  0  0  0  0  0  0999 V2000
  -41.0110  160.2870    0.3150 C   0  0  0  0  0  0  0  0  0  0  0  0
  -39.5580  159.9660    0.6730 C   0  0  0  0  0  0  0  0  0  0  0  0
  -38.6300  161.1310    0.3370 C   0  0  0  0  0  0  0  0  0  0  0  0
  -39.3550  162.1440   -0.3620 O   0  0  0  0  0  0  0  0  0  0  0  0
  -39.1440  162.2480   -1.7100 C   0  0  0  0  0  0  0  0  0  0  0  0
  -38.7980  163.5280   -2.1440 C   0  0  0  0  0  0  0  0  0  0  0  0
  -38.5490  163.8130   -3.4930 C   0  0  0  0  0  0  0  0  0  0  0  0
  -38.6790  162.7660   -4.4190 C   0  0  0  0  0  0  0  0  0  0  0  0
  -38.9780  161.4690   -3.9920 C   0  0  0  0  0  0  0  0  0  0  0  0
  -39.2280  161.2060   -2.6330 C   0  0  0  0  0  0  0  0  0  0  0  0
  -38.9580  160.5780   -5.0280 N   0  0  0  0  0  0  0  0  0  0  0  0
  -38.6460  161.2970   -6.0800 C   0  0  0  0  0  0  0  0  0  0  0  0
  -38.5300  162.6440   -5.7990 N   0  0  0  0  0  0  0  0  0  0  0  0
  -38.3080  163.6260   -6.8100 C   0  0  0  0  0  0  0  0  0  0  0  0
  -38.2840  164.9770   -6.5210 C   0  0  0  0  0  0  0  0  0  0  0  0
  -38.0730  165.8740   -7.5640 C   0  0  0  0  0  0  0  0  0  0  0  0
  -37.9000  165.4100   -8.8730 C   0  0  0  0  0  0  0  0  0  0  0  0
  -37.6960  166.3170   -9.9270 C   0  0  0  0  0  0  0  0  0  0  0  0
  -37.5410  165.8600  -11.2300 C   0  0  0  0  0  0  0  0  0  0  0  0
  -37.5860  164.4940  -11.4820 C   0  0  0  0  0  0  0  0  0  0  0  0
  -37.7810  163.5670  -10.4410 C   0  0  0  0  0  0  0  0  0  0  0  0
  -37.8020  162.1990  -10.8370 N   0  0  0  0  0  0  0  0  0  0  0  0
  -36.4380  161.6430  -10.9380 C   0  0  0  0  0  0  0  0  0  0  0  0
  -36.4430  160.2970  -11.6770 C   0  0  0  0  0  0  0  0  0  0  0  0
  -37.7860  159.5870  -11.5080 C   0  0  0  0  0  0  0  0  0  0  0  0
  -37.7660  158.2650  -12.1430 N   0  0  0  0  0  0  0  0  0  0  0  0
  -38.9350  160.4320  -12.0780 C   0  0  0  0  0  0  0  0  0  0  0  0
  -38.6380  161.9360  -12.0130 C   0  0  0  0  0  0  0  0  0  0  0  0
  -37.9500  164.0200   -9.1080 C   0  0  0  0  0  0  0  0  0  0  0  0
  -38.1650  163.1620   -8.0790 N   0  0  0  0  0  0  0  0  0  0  0  0
  -39.4100  159.3460    2.0770 C   0  0  0  0  0  0  0  0  0  0  0  0
  -39.3760  158.0090    1.5090 O   0  0  0  0  0  0  0  0  0  0  0  0
  -39.1160  158.5680    0.1930 C   0  0  0  0  0  0  0  0  0  0  0  0
  -41.5960  160.4162    1.2376 H   0  0  0  0  0  0  0  0  0  0  0  0
  -41.0469  161.2147   -0.2749 H   0  0  0  0  0  0  0  0  0  0  0  0
  -41.4344  159.4607   -0.2749 H   0  0  0  0  0  0  0  0  0  0  0  0
  -38.2209  161.5515    1.2675 H   0  0  0  0  0  0  0  0  0  0  0  0
  -37.8094  160.7684   -0.2995 H   0  0  0  0  0  0  0  0  0  0  0  0
  -38.7182  164.3383   -1.4044 H   0  0  0  0  0  0  0  0  0  0  0  0
  -38.2610  164.8243   -3.8160 H   0  0  0  0  0  0  0  0  0  0  0  0
  -39.4869  160.1895   -2.3019 H   0  0  0  0  0  0  0  0  0  0  0  0
  -38.4926  160.8709   -7.0824 H   0  0  0  0  0  0  0  0  0  0  0  0
  -38.4282  165.3351   -5.4910 H   0  0  0  0  0  0  0  0  0  0  0  0
  -38.0420  166.9541   -7.3583 H   0  0  0  0  0  0  0  0  0  0  0  0
  -37.6588  167.3965   -9.7189 H   0  0  0  0  0  0  0  0  0  0  0  0
  -37.3843  166.5721  -12.0536 H   0  0  0  0  0  0  0  0  0  0  0  0
  -37.4671  164.1308  -12.5135 H   0  0  0  0  0  0  0  0  0  0  0  0
  -35.8008  162.3519  -11.4870 H   0  0  0  0  0  0  0  0  0  0  0  0
  -36.0502  161.4819   -9.9213 H   0  0  0  0  0  0  0  0  0  0  0  0
  -36.2609  160.4732  -12.7474 H   0  0  0  0  0  0  0  0  0  0  0  0
  -35.6529  159.6601  -11.2526 H   0  0  0  0  0  0  0  0  0  0  0  0
  -37.9560  159.4534  -10.4295 H   0  0  0  0  0  0  0  0  0  0  0  0
  -36.8090  157.9170  -12.1770 H   0  0  0  0  0  0  0  0  0  0  0  0
  -38.2900  157.6060  -11.5680 H   0  0  0  0  0  0  0  0  0  0  0  0
  -39.0959  160.1481  -13.1285 H   0  0  0  0  0  0  0  0  0  0  0  0
  -39.8301  160.2386  -11.4686 H   0  0  0  0  0  0  0  0  0  0  0  0
  -38.1051  162.2479  -12.9234 H   0  0  0  0  0  0  0  0  0  0  0  0
  -39.5787  162.5013  -11.9385 H   0  0  0  0  0  0  0  0  0  0  0  0
  -38.4834  159.6334    2.5954 H   0  0  0  0  0  0  0  0  0  0  0  0
  -40.1394  159.5893    2.8636 H   0  0  0  0  0  0  0  0  0  0  0  0
  -38.0608  158.5150   -0.1131 H   0  0  0  0  0  0  0  0  0  0  0  0
  -39.5838  158.1197   -0.6959 H   0  0  0  0  0  0  0  0  0  0  0  0
  1  2  1  0
  2  3  1  0
  3  4  1  0
  4  5  1  0
  5  6  2  0
  6  7  1  0
  7  8  2  0
  8  9  1  0
  9 10  2  0
  9 11  1  0
 11 12  2  0
 12 13  1  0
 13 14  1  0
 14 15  1  0
 15 16  2  0
 16 17  1  0
 17 18  2  0
 18 19  1  0
 19 20  2  0
 20 21  1  0
 21 22  1  0
 22 23  1  0
 23 24  1  0
 24 25  1  0
 25 26  1  0
 25 27  1  0
 27 28  1  0
 21 29  2  0
 29 30  1  0
  2 31  1  0
 31 32  1  0
 32 33  1  0
 33  2  1  0
 10  5  1  0
 30 14  2  0
 13  8  1  0
 29 17  1  0
 28 22  1  0
  1 34  1  0
  1 35  1  0
  1 36  1  0
  3 37  1  0
  3 38  1  0
  6 39  1  0
  7 40  1  0
 10 41  1  0
 12 42  1  0
 15 43  1  0
 16 44  1  0
 18 45  1  0
 19 46  1  0
 20 47  1  0
 23 48  1  0
 23 49  1  0
 24 50  1  0
 24 51  1  0
 25 52  1  0
 26 53  1  0
 26 54  1  0
 27 55  1  0
 27 56  1  0
 28 57  1  0
 28 58  1  0
 31 59  1  0
 31 60  1  0
 33 61  1  0
 33 62  1  0
M  END
>  <meeko>  (3) 
{"is_sidechain": false}

>  <vina_affinity_kcal_mol>  (3) 
-8.976

>  <pose_rank>  (3) 
3

$$$$

     RDKit          3D

 62 67  0  0  0  0  0  0  0  0999 V2000
  -35.5240  157.9400    5.0730 C   0  0  0  0  0  0  0  0  0  0  0  0
  -34.3810  157.0580    5.5800 C   0  0  0  0  0  0  0  0  0  0  0  0
  -34.5920  156.6530    7.0370 C   0  0  0  0  0  0  0  0  0  0  0  0
  -35.9450  156.2380    7.2350 O   0  0  0  0  0  0  0  0  0  0  0  0
  -36.2530  154.9410    6.9280 C   0  0  0  0  0  0  0  0  0  0  0  0
  -37.2990  154.7940    6.0160 C   0  0  0  0  0  0  0  0  0  0  0  0
  -37.7460  153.5350    5.5940 C   0  0  0  0  0  0  0  0  0  0  0  0
  -37.1190  152.4010    6.1360 C   0  0  0  0  0  0  0  0  0  0  0  0
  -36.0370  152.5350    7.0130 C   0  0  0  0  0  0  0  0  0  0  0  0
  -35.6080  153.8090    7.4270 C   0  0  0  0  0  0  0  0  0  0  0  0
  -35.5030  151.3210    7.3440 N   0  0  0  0  0  0  0  0  0  0  0  0
  -36.2260  150.4470    6.6850 C   0  0  0  0  0  0  0  0  0  0  0  0
  -37.2670  151.0240    5.9850 N   0  0  0  0  0  0  0  0  0  0  0  0
  -38.2470  150.2560    5.2890 C   0  0  0  0  0  0  0  0  0  0  0  0
  -39.5870  150.3100    5.6230 C   0  0  0  0  0  0  0  0  0  0  0  0
  -40.4810  149.5220    4.9030 C   0  0  0  0  0  0  0  0  0  0  0  0
  -40.0240  148.6900    3.8750 C   0  0  0  0  0  0  0  0  0  0  0  0
  -40.9250  147.8890    3.1550 C   0  0  0  0  0  0  0  0  0  0  0  0
  -40.4710  147.0490    2.1460 C   0  0  0  0  0  0  0  0  0  0  0  0
  -39.1140  147.0120    1.8490 C   0  0  0  0  0  0  0  0  0  0  0  0
  -38.1940  147.8130    2.5510 C   0  0  0  0  0  0  0  0  0  0  0  0
  -36.8350  147.6820    2.1440 N   0  0  0  0  0  0  0  0  0  0  0  0
  -36.5290  148.5460    0.9880 C   0  0  0  0  0  0  0  0  0  0  0  0
  -35.1880  148.1610    0.3490 C   0  0  0  0  0  0  0  0  0  0  0  0
  -34.2530  147.5320    1.3810 C   0  0  0  0  0  0  0  0  0  0  0  0
  -32.9410  147.2370    0.7940 N   0  0  0  0  0  0  0  0  0  0  0  0
  -34.8650  146.2540    1.9760 C   0  0  0  0  0  0  0  0  0  0  0  0
  -36.3990  146.2910    1.9780 C   0  0  0  0  0  0  0  0  0  0  0  0
  -38.6420  148.6670    3.5910 C   0  0  0  0  0  0  0  0  0  0  0  0
  -37.7850  149.4360    4.3090 N   0  0  0  0  0  0  0  0  0  0  0  0
  -34.0110  155.9300    4.5960 C   0  0  0  0  0  0  0  0  0  0  0  0
  -32.9190  156.7250    4.0580 O   0  0  0  0  0  0  0  0  0  0  0  0
  -32.9880  157.6090    5.2100 C   0  0  0  0  0  0  0  0  0  0  0  0
  -36.0699  158.3613    5.9300 H   0  0  0  0  0  0  0  0  0  0  0  0
  -35.1132  158.7574    4.4623 H   0  0  0  0  0  0  0  0  0  0  0  0
  -36.2106  157.3353    4.4623 H   0  0  0  0  0  0  0  0  0  0  0  0
  -33.9154  155.8223    7.2864 H   0  0  0  0  0  0  0  0  0  0  0  0
  -34.3784  157.5143    7.6870 H   0  0  0  0  0  0  0  0  0  0  0  0
  -37.7878  155.6946    5.6160 H   0  0  0  0  0  0  0  0  0  0  0  0
  -38.5614  153.4378    4.8621 H   0  0  0  0  0  0  0  0  0  0  0  0
  -34.7734  153.9116    8.1362 H   0  0  0  0  0  0  0  0  0  0  0  0
  -36.0238  149.3658    6.6896 H   0  0  0  0  0  0  0  0  0  0  0  0
  -39.9387  150.9598    6.4379 H   0  0  0  0  0  0  0  0  0  0  0  0
  -41.5538  149.5537    5.1440 H   0  0  0  0  0  0  0  0  0  0  0  0
  -41.9985  147.9270    3.3918 H   0  0  0  0  0  0  0  0  0  0  0  0
  -41.1790  146.4191    1.5874 H   0  0  0  0  0  0  0  0  0  0  0  0
  -38.7528  146.3455    1.0519 H   0  0  0  0  0  0  0  0  0  0  0  0
  -37.3274  148.4396    0.2389 H   0  0  0  0  0  0  0  0  0  0  0  0
  -36.4628  149.5867    1.3380 H   0  0  0  0  0  0  0  0  0  0  0  0
  -35.3690  147.4386   -0.4606 H   0  0  0  0  0  0  0  0  0  0  0  0
  -34.7133  149.0708   -0.0470 H   0  0  0  0  0  0  0  0  0  0  0  0
  -34.1165  148.2632    2.1914 H   0  0  0  0  0  0  0  0  0  0  0  0
  -33.0520  147.0170   -0.1950 H   0  0  0  0  0  0  0  0  0  0  0  0
  -32.3570  148.0720    0.8370 H   0  0  0  0  0  0  0  0  0  0  0  0
  -34.5325  145.3915    1.3798 H   0  0  0  0  0  0  0  0  0  0  0  0
  -34.5283  146.1735    3.0201 H   0  0  0  0  0  0  0  0  0  0  0  0
  -36.7802  145.8946    1.0253 H   0  0  0  0  0  0  0  0  0  0  0  0
  -36.7880  145.6751    2.8022 H   0  0  0  0  0  0  0  0  0  0  0  0
  -33.6858  155.0004    5.0860 H   0  0  0  0  0  0  0  0  0  0  0  0
  -34.7754  155.5195    3.9199 H   0  0  0  0  0  0  0  0  0  0  0  0
  -32.2157  157.4135    5.9685 H   0  0  0  0  0  0  0  0  0  0  0  0
  -32.8429  158.6916    5.0803 H   0  0  0  0  0  0  0  0  0  0  0  0
  1  2  1  0
  2  3  1  0
  3  4  1  0
  4  5  1  0
  5  6  2  0
  6  7  1  0
  7  8  2  0
  8  9  1  0
  9 10  2  0
  9 11  1  0
 11 12  2  0
 12 13  1  0
 13 14  1  0
 14 15  1  0
 15 16  2  0
 16 17  1  0
 17 18  2  0
 18 19  1  0
 19 20  2  0
 20 21  1  0
 21 22  1  0
 22 23  1  0
 23 24  1  0
 24 25  1  0
 25 26  1  0
 25 27  1  0
 27 28  1  0
 21 29  2  0
 29 30  1  0
  2 31  1  0
 31 32  1  0
 32 33  1  0
 33  2  1  0
 10  5  1  0
 30 14  2  0
 13  8  1  0
 29 17  1  0
 28 22  1  0
  1 34  1  0
  1 35  1  0
  1 36  1  0
  3 37  1  0
  3 38  1  0
  6 39  1  0
  7 40  1  0
 10 41  1  0
 12 42  1  0
 15 43  1  0
 16 44  1  0
 18 45  1  0
 19 46  1  0
 20 47  1  0
 23 48  1  0
 23 49  1  0
 24 50  1  0
 24 51  1  0
 25 52  1  0
 26 53  1  0
 26 54  1  0
 27 55  1  0
 27 56  1  0
 28 57  1  0
 28 58  1  0
 31 59  1  0
 31 60  1  0
 33 61  1  0
 33 62  1  0
M  END
>  <meeko>  (4) 
{"is_sidechain": false}

>  <vina_affinity_kcal_mol>  (4) 
-8.513

>  <pose_rank>  (4) 
4

$$$$

     RDKit          3D

 62 67  0  0  0  0  0  0  0  0999 V2000
  -37.5730  156.1970    3.7070 C   0  0  0  0  0  0  0  0  0  0  0  0
  -37.1730  157.6280    4.0700 C   0  0  0  0  0  0  0  0  0  0  0  0
  -37.9660  158.6530    3.2610 C   0  0  0  0  0  0  0  0  0  0  0  0
  -38.6910  157.9940    2.2210 O   0  0  0  0  0  0  0  0  0  0  0  0
  -38.7180  158.6020    0.9950 C   0  0  0  0  0  0  0  0  0  0  0  0
  -38.4550  159.9720    1.0240 C   0  0  0  0  0  0  0  0  0  0  0  0
  -38.4460  160.7520   -0.1410 C   0  0  0  0  0  0  0  0  0  0  0  0
  -38.7350  160.1150   -1.3580 C   0  0  0  0  0  0  0  0  0  0  0  0
  -38.9530  158.7340   -1.4070 C   0  0  0  0  0  0  0  0  0  0  0  0
  -38.9610  157.9710   -0.2250 C   0  0  0  0  0  0  0  0  0  0  0  0
  -39.1140  158.2930   -2.6900 N   0  0  0  0  0  0  0  0  0  0  0  0
  -38.9920  159.3690   -3.4300 C   0  0  0  0  0  0  0  0  0  0  0  0
  -38.8290  160.5210   -2.6870 N   0  0  0  0  0  0  0  0  0  0  0  0
  -38.7890  161.8190   -3.2770 C   0  0  0  0  0  0  0  0  0  0  0  0
  -39.1440  162.9530   -2.5690 C   0  0  0  0  0  0  0  0  0  0  0  0
  -39.0890  164.1830   -3.2190 C   0  0  0  0  0  0  0  0  0  0  0  0
  -38.6920  164.2600   -4.5590 C   0  0  0  0  0  0  0  0  0  0  0  0
  -38.6440  165.5010   -5.2150 C   0  0  0  0  0  0  0  0  0  0  0  0
  -38.2670  165.5780   -6.5500 C   0  0  0  0  0  0  0  0  0  0  0  0
  -37.9310  164.4150   -7.2310 C   0  0  0  0  0  0  0  0  0  0  0  0
  -37.9620  163.1620   -6.5910 C   0  0  0  0  0  0  0  0  0  0  0  0
  -37.5910  162.0510   -7.4030 N   0  0  0  0  0  0  0  0  0  0  0  0
  -36.4600  161.3060   -6.8170 C   0  0  0  0  0  0  0  0  0  0  0  0
  -35.8510  160.3330   -7.8360 C   0  0  0  0  0  0  0  0  0  0  0  0
  -36.8960  159.8910   -8.8600 C   0  0  0  0  0  0  0  0  0  0  0  0
  -36.3400  158.8990   -9.7860 N   0  0  0  0  0  0  0  0  0  0  0  0
  -37.4500  161.0930   -9.6410 C   0  0  0  0  0  0  0  0  0  0  0  0
  -37.4100  162.3870   -8.8190 C   0  0  0  0  0  0  0  0  0  0  0  0
  -38.3550  163.0670   -5.2310 C   0  0  0  0  0  0  0  0  0  0  0  0
  -38.4240  161.8760   -4.5850 N   0  0  0  0  0  0  0  0  0  0  0  0
  -37.0930  157.8610    5.5920 C   0  0  0  0  0  0  0  0  0  0  0  0
  -35.6540  157.6550    5.5720 O   0  0  0  0  0  0  0  0  0  0  0  0
  -35.6440  157.8280    4.1290 C   0  0  0  0  0  0  0  0  0  0  0  0
  -37.7351  155.6169    4.6274 H   0  0  0  0  0  0  0  0  0  0  0  0
  -38.5007  156.2143    3.1162 H   0  0  0  0  0  0  0  0  0  0  0  0
  -36.7708  155.7307    3.1162 H   0  0  0  0  0  0  0  0  0  0  0  0
  -38.6719  159.1743    3.9242 H   0  0  0  0  0  0  0  0  0  0  0  0
  -37.2708  159.3792    2.8146 H   0  0  0  0  0  0  0  0  0  0  0  0
  -38.2484  160.4549    1.9905 H   0  0  0  0  0  0  0  0  0  0  0  0
  -38.2199  161.8278   -0.1026 H   0  0  0  0  0  0  0  0  0  0  0  0
  -39.1566  156.8892   -0.2625 H   0  0  0  0  0  0  0  0  0  0  0  0
  -39.0170  159.3549   -4.5296 H   0  0  0  0  0  0  0  0  0  0  0  0
  -39.4620  162.8847   -1.5182 H   0  0  0  0  0  0  0  0  0  0  0  0
  -39.3594  165.1005   -2.6758 H   0  0  0  0  0  0  0  0  0  0  0  0
  -38.9067  166.4184   -4.6679 H   0  0  0  0  0  0  0  0  0  0  0  0
  -38.2349  166.5507   -7.0627 H   0  0  0  0  0  0  0  0  0  0  0  0
  -37.6355  164.4743   -8.2889 H   0  0  0  0  0  0  0  0  0  0  0  0
  -35.6873  162.0201   -6.4961 H   0  0  0  0  0  0  0  0  0  0  0  0
  -36.8311  160.7260   -5.9592 H   0  0  0  0  0  0  0  0  0  0  0  0
  -35.0222  160.8319   -8.3596 H   0  0  0  0  0  0  0  0  0  0  0  0
  -35.4870  159.4444   -7.2994 H   0  0  0  0  0  0  0  0  0  0  0  0
  -37.7244  159.4252   -8.3061 H   0  0  0  0  0  0  0  0  0  0  0  0
  -35.8240  158.1940   -9.2610 H   0  0  0  0  0  0  0  0  0  0  0  0
  -37.1020  158.4070  -10.2510 H   0  0  0  0  0  0  0  0  0  0  0  0
  -36.8474  161.2325  -10.5506 H   0  0  0  0  0  0  0  0  0  0  0  0
  -38.5013  160.8810   -9.8855 H   0  0  0  0  0  0  0  0  0  0  0  0
  -36.4394  162.8851   -8.9600 H   0  0  0  0  0  0  0  0  0  0  0  0
  -38.2112  163.0649   -9.1485 H   0  0  0  0  0  0  0  0  0  0  0  0
  -37.3939  158.8719    5.9042 H   0  0  0  0  0  0  0  0  0  0  0  0
  -37.7225  157.2676    6.2714 H   0  0  0  0  0  0  0  0  0  0  0  0
  -35.3121  158.8245    3.8020 H   0  0  0  0  0  0  0  0  0  0  0  0
  -34.9847  157.2054    3.5063 H   0  0  0  0  0  0  0  0  0  0  0  0
  1  2  1  0
  2  3  1  0
  3  4  1  0
  4  5  1  0
  5  6  2  0
  6  7  1  0
  7  8  2  0
  8  9  1  0
  9 10  2  0
  9 11  1  0
 11 12  2  0
 12 13  1  0
 13 14  1  0
 14 15  1  0
 15 16  2  0
 16 17  1  0
 17 18  2  0
 18 19  1  0
 19 20  2  0
 20 21  1  0
 21 22  1  0
 22 23  1  0
 23 24  1  0
 24 25  1  0
 25 26  1  0
 25 27  1  0
 27 28  1  0
 21 29  2  0
 29 30  1  0
  2 31  1  0
 31 32  1  0
 32 33  1  0
 33  2  1  0
 10  5  1  0
 30 14  2  0
 13  8  1  0
 29 17  1  0
 28 22  1  0
  1 34  1  0
  1 35  1  0
  1 36  1  0
  3 37  1  0
  3 38  1  0
  6 39  1  0
  7 40  1  0
 10 41  1  0
 12 42  1  0
 15 43  1  0
 16 44  1  0
 18 45  1  0
 19 46  1  0
 20 47  1  0
 23 48  1  0
 23 49  1  0
 24 50  1  0
 24 51  1  0
 25 52  1  0
 26 53  1  0
 26 54  1  0
 27 55  1  0
 27 56  1  0
 28 57  1  0
 28 58  1  0
 31 59  1  0
 31 60  1  0
 33 61  1  0
 33 62  1  0
M  END
>  <meeko>  (5) 
{"is_sidechain": false}

>  <vina_affinity_kcal_mol>  (5) 
-8.434

>  <pose_rank>  (5) 
5

$$$$

     RDKit          3D

 62 67  0  0  0  0  0  0  0  0999 V2000
  -40.3860  158.3730    2.4910 C   0  0  0  0  0  0  0  0  0  0  0  0
  -39.1850  158.7720    1.6310 C   0  0  0  0  0  0  0  0  0  0  0  0
  -37.9030  158.0950    2.1130 C   0  0  0  0  0  0  0  0  0  0  0  0
  -37.9150  157.9930    3.5390 O   0  0  0  0  0  0  0  0  0  0  0  0
  -37.2150  156.9580    4.0980 C   0  0  0  0  0  0  0  0  0  0  0  0
  -37.9890  155.8420    4.4180 C   0  0  0  0  0  0  0  0  0  0  0  0
  -37.4340  154.6950    5.0000 C   0  0  0  0  0  0  0  0  0  0  0  0
  -36.0580  154.7020    5.2790 C   0  0  0  0  0  0  0  0  0  0  0  0
  -35.2630  155.7950    4.9190 C   0  0  0  0  0  0  0  0  0  0  0  0
  -35.8420  156.9380    4.3390 C   0  0  0  0  0  0  0  0  0  0  0  0
  -33.9410  155.5650    5.1810 N   0  0  0  0  0  0  0  0  0  0  0  0
  -33.9060  154.3550    5.6850 C   0  0  0  0  0  0  0  0  0  0  0  0
  -35.1590  153.7960    5.8380 N   0  0  0  0  0  0  0  0  0  0  0  0
  -35.3690  152.5350    6.4700 C   0  0  0  0  0  0  0  0  0  0  0  0
  -34.5880  152.1110    7.5300 C   0  0  0  0  0  0  0  0  0  0  0  0
  -34.8480  150.8620    8.0860 C   0  0  0  0  0  0  0  0  0  0  0  0
  -35.8700  150.0560    7.5720 C   0  0  0  0  0  0  0  0  0  0  0  0
  -36.1260  148.7920    8.1290 C   0  0  0  0  0  0  0  0  0  0  0  0
  -37.1300  147.9830    7.6090 C   0  0  0  0  0  0  0  0  0  0  0  0
  -37.8830  148.4380    6.5350 C   0  0  0  0  0  0  0  0  0  0  0  0
  -37.6510  149.7050    5.9670 C   0  0  0  0  0  0  0  0  0  0  0  0
  -38.4970  150.0490    4.8730 N   0  0  0  0  0  0  0  0  0  0  0  0
  -39.9120  150.1220    5.2860 C   0  0  0  0  0  0  0  0  0  0  0  0
  -40.8430  150.1580    4.0650 C   0  0  0  0  0  0  0  0  0  0  0  0
  -40.1360  150.7750    2.8590 C   0  0  0  0  0  0  0  0  0  0  0  0
  -41.0470  150.8860    1.7140 N   0  0  0  0  0  0  0  0  0  0  0  0
  -38.8930  149.9600    2.4690 C   0  0  0  0  0  0  0  0  0  0  0  0
  -38.2700  149.2400    3.6720 C   0  0  0  0  0  0  0  0  0  0  0  0
  -36.6230  150.5370    6.4800 C   0  0  0  0  0  0  0  0  0  0  0  0
  -36.3500  151.7530    5.9460 N   0  0  0  0  0  0  0  0  0  0  0  0
  -39.4780  158.6990    0.1190 C   0  0  0  0  0  0  0  0  0  0  0  0
  -39.7530  160.1250    0.0790 O   0  0  0  0  0  0  0  0  0  0  0  0
  -39.1100  160.2910    1.3720 C   0  0  0  0  0  0  0  0  0  0  0  0
  -40.1206  158.4612    3.5549 H   0  0  0  0  0  0  0  0  0  0  0  0
  -41.2336  159.0378    2.2682 H   0  0  0  0  0  0  0  0  0  0  0  0
  -40.6672  157.3332    2.2682 H   0  0  0  0  0  0  0  0  0  0  0  0
  -37.8353  157.0880    1.6756 H   0  0  0  0  0  0  0  0  0  0  0  0
  -37.0359  158.6948    1.7994 H   0  0  0  0  0  0  0  0  0  0  0  0
  -39.0683  155.8635    4.2067 H   0  0  0  0  0  0  0  0  0  0  0  0
  -38.0559  153.8176    5.2309 H   0  0  0  0  0  0  0  0  0  0  0  0
  -35.2187  157.8062    4.0785 H   0  0  0  0  0  0  0  0  0  0  0  0
  -32.9740  153.8384    5.9579 H   0  0  0  0  0  0  0  0  0  0  0  0
  -33.7807  152.7458    7.9240 H   0  0  0  0  0  0  0  0  0  0  0  0
  -34.2462  150.5060    8.9351 H   0  0  0  0  0  0  0  0  0  0  0  0
  -35.5280  148.4399    8.9825 H   0  0  0  0  0  0  0  0  0  0  0  0
  -37.3259  146.9920    8.0443 H   0  0  0  0  0  0  0  0  0  0  0  0
  -38.6750  147.7970    6.1205 H   0  0  0  0  0  0  0  0  0  0  0  0
  -40.1541  149.2396    5.8965 H   0  0  0  0  0  0  0  0  0  0  0  0
  -40.0597  151.0452    5.8655 H   0  0  0  0  0  0  0  0  0  0  0  0
  -41.1505  149.1316    3.8161 H   0  0  0  0  0  0  0  0  0  0  0  0
  -41.7213  150.7731    4.3104 H   0  0  0  0  0  0  0  0  0  0  0  0
  -39.8126  151.7861    3.1474 H   0  0  0  0  0  0  0  0  0  0  0  0
  -40.9420  150.0690    1.1140 H   0  0  0  0  0  0  0  0  0  0  0  0
  -42.0100  150.8740    2.0470 H   0  0  0  0  0  0  0  0  0  0  0  0
  -39.1826  149.2098    1.7185 H   0  0  0  0  0  0  0  0  0  0  0  0
  -38.1435  150.6587    2.0689 H   0  0  0  0  0  0  0  0  0  0  0  0
  -38.7394  148.2530    3.7964 H   0  0  0  0  0  0  0  0  0  0  0  0
  -37.1905  149.1045    3.5099 H   0  0  0  0  0  0  0  0  0  0  0  0
  -38.6126  158.3951   -0.4882 H   0  0  0  0  0  0  0  0  0  0  0  0
  -40.2242  157.9858   -0.2611 H   0  0  0  0  0  0  0  0  0  0  0  0
  -38.0838  160.6827    1.3124 H   0  0  0  0  0  0  0  0  0  0  0  0
  -39.5285  160.9944    2.1069 H   0  0  0  0  0  0  0  0  0  0  0  0
  1  2  1  0
  2  3  1  0
  3  4  1  0
  4  5  1  0
  5  6  2  0
  6  7  1  0
  7  8  2  0
  8  9  1  0
  9 10  2  0
  9 11  1  0
 11 12  2  0
 12 13  1  0
 13 14  1  0
 14 15  1  0
 15 16  2  0
 16 17  1  0
 17 18  2  0
 18 19  1  0
 19 20  2  0
 20 21  1  0
 21 22  1  0
 22 23  1  0
 23 24  1  0
 24 25  1  0
 25 26  1  0
 25 27  1  0
 27 28  1  0
 21 29  2  0
 29 30  1  0
  2 31  1  0
 31 32  1  0
 32 33  1  0
 33  2  1  0
 10  5  1  0
 30 14  2  0
 13  8  1  0
 29 17  1  0
 28 22  1  0
  1 34  1  0
  1 35  1  0
  1 36  1  0
  3 37  1  0
  3 38  1  0
  6 39  1  0
  7 40  1  0
 10 41  1  0
 12 42  1  0
 15 43  1  0
 16 44  1  0
 18 45  1  0
 19 46  1  0
 20 47  1  0
 23 48  1  0
 23 49  1  0
 24 50  1  0
 24 51  1  0
 25 52  1  0
 26 53  1  0
 26 54  1  0
 27 55  1  0
 27 56  1  0
 28 57  1  0
 28 58  1  0
 31 59  1  0
 31 60  1  0
 33 61  1  0
 33 62  1  0
M  END
>  <meeko>  (6) 
{"is_sidechain": false}

>  <vina_affinity_kcal_mol>  (6) 
-8.365

>  <pose_rank>  (6) 
6

$$$$

     RDKit          3D

 62 67  0  0  0  0  0  0  0  0999 V2000
  -35.7420  157.5630    6.6080 C   0  0  0  0  0  0  0  0  0  0  0  0
  -34.6440  156.5660    6.2350 C   0  0  0  0  0  0  0  0  0  0  0  0
  -34.5180  155.4560    7.2770 C   0  0  0  0  0  0  0  0  0  0  0  0
  -35.8010  154.8770    7.5260 O   0  0  0  0  0  0  0  0  0  0  0  0
  -36.0820  153.6900    6.9060 C   0  0  0  0  0  0  0  0  0  0  0  0
  -37.3880  153.5820    6.4270 C   0  0  0  0  0  0  0  0  0  0  0  0
  -37.8460  152.4320    5.7700 C   0  0  0  0  0  0  0  0  0  0  0  0
  -36.9490  151.3620    5.6180 C   0  0  0  0  0  0  0  0  0  0  0  0
  -35.6240  151.4760    6.0510 C   0  0  0  0  0  0  0  0  0  0  0  0
  -35.1860  152.6380    6.7120 C   0  0  0  0  0  0  0  0  0  0  0  0
  -34.8890  150.3720    5.7210 N   0  0  0  0  0  0  0  0  0  0  0  0
  -35.7300  149.5870    5.0910 C   0  0  0  0  0  0  0  0  0  0  0  0
  -37.0150  150.0920    5.0510 N   0  0  0  0  0  0  0  0  0  0  0  0
  -38.1140  149.3580    4.5160 C   0  0  0  0  0  0  0  0  0  0  0  0
  -39.3110  149.2370    5.1980 C   0  0  0  0  0  0  0  0  0  0  0  0
  -40.3340  148.4950    4.6140 C   0  0  0  0  0  0  0  0  0  0  0  0
  -40.1430  147.8810    3.3700 C   0  0  0  0  0  0  0  0  0  0  0  0
  -41.1730  147.1260    2.7860 C   0  0  0  0  0  0  0  0  0  0  0  0
  -40.9810  146.5020    1.5590 C   0  0  0  0  0  0  0  0  0  0  0  0
  -39.7590  146.6350    0.9120 C   0  0  0  0  0  0  0  0  0  0  0  0
  -38.7160  147.3950    1.4740 C   0  0  0  0  0  0  0  0  0  0  0  0
  -37.5190  147.4530    0.7040 N   0  0  0  0  0  0  0  0  0  0  0  0
  -37.7900  147.8550   -0.6900 C   0  0  0  0  0  0  0  0  0  0  0  0
  -36.5720  147.5950   -1.5870 C   0  0  0  0  0  0  0  0  0  0  0  0
  -35.2760  147.6570   -0.7800 C   0  0  0  0  0  0  0  0  0  0  0  0
  -34.1050  147.4890   -1.6480 N   0  0  0  0  0  0  0  0  0  0  0  0
  -35.2660  146.5970    0.3330 C   0  0  0  0  0  0  0  0  0  0  0  0
  -36.6790  146.2570    0.8240 C   0  0  0  0  0  0  0  0  0  0  0  0
  -38.8950  148.0290    2.7300 C   0  0  0  0  0  0  0  0  0  0  0  0
  -37.9070  148.7490    3.3190 N   0  0  0  0  0  0  0  0  0  0  0  0
  -34.7100  156.1240    4.7590 C   0  0  0  0  0  0  0  0  0  0  0  0
  -33.6970  157.1010    4.3960 O   0  0  0  0  0  0  0  0  0  0  0  0
  -33.3340  157.2520    5.7950 C   0  0  0  0  0  0  0  0  0  0  0  0
  -35.8180  157.6320    7.7032 H   0  0  0  0  0  0  0  0  0  0  0  0
  -35.4951  158.5520    6.1945 H   0  0  0  0  0  0  0  0  0  0  0  0
  -36.7027  157.2221    6.1945 H   0  0  0  0  0  0  0  0  0  0  0  0
  -33.8337  154.6802    6.9030 H   0  0  0  0  0  0  0  0  0  0  0  0
  -34.1231  155.8793    8.2123 H   0  0  0  0  0  0  0  0  0  0  0  0
  -38.0795  154.4256    6.5695 H   0  0  0  0  0  0  0  0  0  0  0  0
  -38.8748  152.3694    5.3858 H   0  0  0  0  0  0  0  0  0  0  0  0
  -34.1494  152.7164    7.0717 H   0  0  0  0  0  0  0  0  0  0  0  0
  -35.4417  148.6256    4.6409 H   0  0  0  0  0  0  0  0  0  0  0  0
  -39.4514  149.7156    6.1784 H   0  0  0  0  0  0  0  0  0  0  0  0
  -41.2982  148.3904    5.1329 H   0  0  0  0  0  0  0  0  0  0  0  0
  -42.1388  147.0278    3.3034 H   0  0  0  0  0  0  0  0  0  0  0  0
  -41.7885  145.9089    1.1049 H   0  0  0  0  0  0  0  0  0  0  0  0
  -39.6036  146.1376   -0.0567 H   0  0  0  0  0  0  0  0  0  0  0  0
  -38.6459  147.2781   -1.0703 H   0  0  0  0  0  0  0  0  0  0  0  0
  -38.0120  148.9322   -0.7060 H   0  0  0  0  0  0  0  0  0  0  0  0
  -36.6658  146.5976   -2.0412 H   0  0  0  0  0  0  0  0  0  0  0  0
  -36.5378  148.3708   -2.3660 H   0  0  0  0  0  0  0  0  0  0  0  0
  -35.2246  148.6521   -0.3140 H   0  0  0  0  0  0  0  0  0  0  0  0
  -33.5540  146.6940   -1.3260 H   0  0  0  0  0  0  0  0  0  0  0  0
  -34.4150  147.2590   -2.5910 H   0  0  0  0  0  0  0  0  0  0  0  0
  -34.7960  145.6811   -0.0546 H   0  0  0  0  0  0  0  0  0  0  0  0
  -34.7030  147.0073    1.1842 H   0  0  0  0  0  0  0  0  0  0  0  0
  -37.0991  145.4465    0.2103 H   0  0  0  0  0  0  0  0  0  0  0  0
  -36.6423  145.9286    1.8732 H   0  0  0  0  0  0  0  0  0  0  0  0
  -34.4028  155.0810    4.5923 H   0  0  0  0  0  0  0  0  0  0  0  0
  -35.6757  156.1139    4.2323 H   0  0  0  0  0  0  0  0  0  0  0  0
  -32.4253  156.7021    6.0812 H   0  0  0  0  0  0  0  0  0  0  0  0
  -33.0755  158.2454    6.1904 H   0  0  0  0  0  0  0  0  0  0  0  0
  1  2  1  0
  2  3  1  0
  3  4  1  0
  4  5  1  0
  5  6  2  0
  6  7  1  0
  7  8  2  0
  8  9  1  0
  9 10  2  0
  9 11  1  0
 11 12  2  0
 12 13  1  0
 13 14  1  0
 14 15  1  0
 15 16  2  0
 16 17  1  0
 17 18  2  0
 18 19  1  0
 19 20  2  0
 20 21  1  0
 21 22  1  0
 22 23  1  0
 23 24  1  0
 24 25  1  0
 25 26  1  0
 25 27  1  0
 27 28  1  0
 21 29  2  0
 29 30  1  0
  2 31  1  0
 31 32  1  0
 32 33  1  0
 33  2  1  0
 10  5  1  0
 30 14  2  0
 13  8  1  0
 29 17  1  0
 28 22  1  0
  1 34  1  0
  1 35  1  0
  1 36  1  0
  3 37  1  0
  3 38  1  0
  6 39  1  0
  7 40  1  0
 10 41  1  0
 12 42  1  0
 15 43  1  0
 16 44  1  0
 18 45  1  0
 19 46  1  0
 20 47  1  0
 23 48  1  0
 23 49  1  0
 24 50  1  0
 24 51  1  0
 25 52  1  0
 26 53  1  0
 26 54  1  0
 27 55  1  0
 27 56  1  0
 28 57  1  0
 28 58  1  0
 31 59  1  0
 31 60  1  0
 33 61  1  0
 33 62  1  0
M  END
>  <meeko>  (7) 
{"is_sidechain": false}

>  <vina_affinity_kcal_mol>  (7) 
-8.305

>  <pose_rank>  (7) 
7

$$$$

     RDKit          3D

 62 67  0  0  0  0  0  0  0  0999 V2000
  -34.5060  156.8590    6.9680 C   0  0  0  0  0  0  0  0  0  0  0  0
  -34.8420  155.8740    5.8470 C   0  0  0  0  0  0  0  0  0  0  0  0
  -34.7590  154.4280    6.3310 C   0  0  0  0  0  0  0  0  0  0  0  0
  -36.0750  153.9070    6.5320 O   0  0  0  0  0  0  0  0  0  0  0  0
  -36.3320  152.6540    6.0470 C   0  0  0  0  0  0  0  0  0  0  0  0
  -35.2280  151.8020    6.0280 C   0  0  0  0  0  0  0  0  0  0  0  0
  -35.3130  150.4840    5.5590 C   0  0  0  0  0  0  0  0  0  0  0  0
  -36.5550  150.0380    5.0800 C   0  0  0  0  0  0  0  0  0  0  0  0
  -37.6810  150.8660    5.1380 C   0  0  0  0  0  0  0  0  0  0  0  0
  -37.5720  152.1860    5.6090 C   0  0  0  0  0  0  0  0  0  0  0  0
  -38.8080  150.2150    4.7210 N   0  0  0  0  0  0  0  0  0  0  0  0
  -38.4020  149.0050    4.4170 C   0  0  0  0  0  0  0  0  0  0  0  0
  -37.0360  148.8460    4.5430 N   0  0  0  0  0  0  0  0  0  0  0  0
  -36.3610  147.6500    4.1590 C   0  0  0  0  0  0  0  0  0  0  0  0
  -35.9170  146.7310    5.0910 C   0  0  0  0  0  0  0  0  0  0  0  0
  -35.2560  145.5930    4.6370 C   0  0  0  0  0  0  0  0  0  0  0  0
  -35.0420  145.3970    3.2680 C   0  0  0  0  0  0  0  0  0  0  0  0
  -34.3680  144.2520    2.8110 C   0  0  0  0  0  0  0  0  0  0  0  0
  -34.1390  144.0630    1.4540 C   0  0  0  0  0  0  0  0  0  0  0  0
  -34.5880  145.0170    0.5490 C   0  0  0  0  0  0  0  0  0  0  0  0
  -35.2740  146.1660    0.9820 C   0  0  0  0  0  0  0  0  0  0  0  0
  -35.6830  147.0600   -0.0490 N   0  0  0  0  0  0  0  0  0  0  0  0
  -35.8860  146.3540   -1.3290 C   0  0  0  0  0  0  0  0  0  0  0  0
  -35.9940  147.3440   -2.4960 C   0  0  0  0  0  0  0  0  0  0  0  0
  -36.5340  148.6920   -2.0200 C   0  0  0  0  0  0  0  0  0  0  0  0
  -36.7160  149.6160   -3.1450 N   0  0  0  0  0  0  0  0  0  0  0  0
  -35.6070  149.3180   -0.9660 C   0  0  0  0  0  0  0  0  0  0  0  0
  -34.8450  148.2590   -0.1600 C   0  0  0  0  0  0  0  0  0  0  0  0
  -35.5060  146.3770    2.3660 C   0  0  0  0  0  0  0  0  0  0  0  0
  -36.1400  147.4840    2.8280 N   0  0  0  0  0  0  0  0  0  0  0  0
  -36.1080  156.2680    5.0610 C   0  0  0  0  0  0  0  0  0  0  0  0
  -35.3010  156.8910    4.0260 O   0  0  0  0  0  0  0  0  0  0  0  0
  -34.1220  156.2020    4.5220 C   0  0  0  0  0  0  0  0  0  0  0  0
  -34.6708  156.3758    7.9423 H   0  0  0  0  0  0  0  0  0  0  0  0
  -33.4527  157.1648    6.8839 H   0  0  0  0  0  0  0  0  0  0  0  0
  -35.1528  157.7447    6.8839 H   0  0  0  0  0  0  0  0  0  0  0  0
  -34.2371  153.8202    5.5772 H   0  0  0  0  0  0  0  0  0  0  0  0
  -34.2068  154.3950    7.2818 H   0  0  0  0  0  0  0  0  0  0  0  0
  -34.2600  152.1762    6.3926 H   0  0  0  0  0  0  0  0  0  0  0  0
  -34.4354  149.8208    5.5660 H   0  0  0  0  0  0  0  0  0  0  0  0
  -38.4541  152.8428    5.6321 H   0  0  0  0  0  0  0  0  0  0  0  0
  -39.0795  148.2005    4.0951 H   0  0  0  0  0  0  0  0  0  0  0  0
  -36.0820  146.8949    6.1661 H   0  0  0  0  0  0  0  0  0  0  0  0
  -34.8997  144.8433    5.3588 H   0  0  0  0  0  0  0  0  0  0  0  0
  -34.0190  143.4994    3.5334 H   0  0  0  0  0  0  0  0  0  0  0  0
  -33.6077  143.1674    1.0995 H   0  0  0  0  0  0  0  0  0  0  0  0
  -34.4036  144.8710   -0.5256 H   0  0  0  0  0  0  0  0  0  0  0  0
  -35.0343  145.6809   -1.5068 H   0  0  0  0  0  0  0  0  0  0  0  0
  -36.8243  145.7833   -1.2677 H   0  0  0  0  0  0  0  0  0  0  0  0
  -34.9970  147.4909   -2.9370 H   0  0  0  0  0  0  0  0  0  0  0  0
  -36.6880  146.9317   -3.2433 H   0  0  0  0  0  0  0  0  0  0  0  0
  -37.5151  148.5093   -1.5574 H   0  0  0  0  0  0  0  0  0  0  0  0
  -35.8080  149.8400   -3.5520 H   0  0  0  0  0  0  0  0  0  0  0  0
  -37.2500  149.1520   -3.8790 H   0  0  0  0  0  0  0  0  0  0  0  0
  -34.8791  149.9666   -1.4754 H   0  0  0  0  0  0  0  0  0  0  0  0
  -36.2322  149.8900   -0.2646 H   0  0  0  0  0  0  0  0  0  0  0  0
  -33.9055  148.0078   -0.6739 H   0  0  0  0  0  0  0  0  0  0  0  0
  -34.6111  148.6471    0.8423 H   0  0  0  0  0  0  0  0  0  0  0  0
  -36.6987  155.4095    4.7088 H   0  0  0  0  0  0  0  0  0  0  0  0
  -36.9039  156.8435    5.5563 H   0  0  0  0  0  0  0  0  0  0  0  0
  -33.8442  155.3146    3.9343 H   0  0  0  0  0  0  0  0  0  0  0  0
  -33.1508  156.7181    4.5382 H   0  0  0  0  0  0  0  0  0  0  0  0
  1  2  1  0
  2  3  1  0
  3  4  1  0
  4  5  1  0
  5  6  2  0
  6  7  1  0
  7  8  2  0
  8  9  1  0
  9 10  2  0
  9 11  1  0
 11 12  2  0
 12 13  1  0
 13 14  1  0
 14 15  1  0
 15 16  2  0
 16 17  1  0
 17 18  2  0
 18 19  1  0
 19 20  2  0
 20 21  1  0
 21 22  1  0
 22 23  1  0
 23 24  1  0
 24 25  1  0
 25 26  1  0
 25 27  1  0
 27 28  1  0
 21 29  2  0
 29 30  1  0
  2 31  1  0
 31 32  1  0
 32 33  1  0
 33  2  1  0
 10  5  1  0
 30 14  2  0
 13  8  1  0
 29 17  1  0
 28 22  1  0
  1 34  1  0
  1 35  1  0
  1 36  1  0
  3 37  1  0
  3 38  1  0
  6 39  1  0
  7 40  1  0
 10 41  1  0
 12 42  1  0
 15 43  1  0
 16 44  1  0
 18 45  1  0
 19 46  1  0
 20 47  1  0
 23 48  1  0
 23 49  1  0
 24 50  1  0
 24 51  1  0
 25 52  1  0
 26 53  1  0
 26 54  1  0
 27 55  1  0
 27 56  1  0
 28 57  1  0
 28 58  1  0
 31 59  1  0
 31 60  1  0
 33 61  1  0
 33 62  1  0
M  END
>  <meeko>  (8) 
{"is_sidechain": false}

>  <vina_affinity_kcal_mol>  (8) 
-8.258

>  <pose_rank>  (8) 
8

$$$$

     RDKit          3D

 62 67  0  0  0  0  0  0  0  0999 V2000
  -43.2210  147.2400   -5.0060 C   0  0  0  0  0  0  0  0  0  0  0  0
  -41.9050  146.4840   -5.1990 C   0  0  0  0  0  0  0  0  0  0  0  0
  -40.7600  147.1550   -4.4440 C   0  0  0  0  0  0  0  0  0  0  0  0
  -40.6800  146.6280   -3.1180 O   0  0  0  0  0  0  0  0  0  0  0  0
  -39.5360  146.8850   -2.4110 C   0  0  0  0  0  0  0  0  0  0  0  0
  -39.6160  146.5810   -1.0520 C   0  0  0  0  0  0  0  0  0  0  0  0
  -38.5370  146.7840   -0.1800 C   0  0  0  0  0  0  0  0  0  0  0  0
  -37.3580  147.3310   -0.7120 C   0  0  0  0  0  0  0  0  0  0  0  0
  -37.2490  147.5940   -2.0820 C   0  0  0  0  0  0  0  0  0  0  0  0
  -38.3460  147.3860   -2.9370 C   0  0  0  0  0  0  0  0  0  0  0  0
  -35.9950  148.0230   -2.4150 N   0  0  0  0  0  0  0  0  0  0  0  0
  -35.3300  148.0210   -1.2840 C   0  0  0  0  0  0  0  0  0  0  0  0
  -36.1110  147.6790   -0.1980 N   0  0  0  0  0  0  0  0  0  0  0  0
  -35.6280  147.7200    1.1430 C   0  0  0  0  0  0  0  0  0  0  0  0
  -34.3580  147.2840    1.4740 C   0  0  0  0  0  0  0  0  0  0  0  0
  -33.9640  147.3470    2.8080 C   0  0  0  0  0  0  0  0  0  0  0  0
  -34.8410  147.8310    3.7850 C   0  0  0  0  0  0  0  0  0  0  0  0
  -34.4440  147.8860    5.1310 C   0  0  0  0  0  0  0  0  0  0  0  0
  -35.3190  148.3500    6.1060 C   0  0  0  0  0  0  0  0  0  0  0  0
  -36.5920  148.7650    5.7350 C   0  0  0  0  0  0  0  0  0  0  0  0
  -37.0080  148.7280    4.3910 C   0  0  0  0  0  0  0  0  0  0  0  0
  -38.3350  149.1870    4.1490 N   0  0  0  0  0  0  0  0  0  0  0  0
  -38.7460  150.2040    5.1360 C   0  0  0  0  0  0  0  0  0  0  0  0
  -40.2610  150.4450    5.0840 C   0  0  0  0  0  0  0  0  0  0  0  0
  -40.8120  150.1480    3.6900 C   0  0  0  0  0  0  0  0  0  0  0  0
  -42.2450  150.4550    3.6130 N   0  0  0  0  0  0  0  0  0  0  0  0
  -40.5630  148.6830    3.2980 C   0  0  0  0  0  0  0  0  0  0  0  0
  -39.3110  148.1070    3.9690 C   0  0  0  0  0  0  0  0  0  0  0  0
  -36.1280  148.2470    3.3870 C   0  0  0  0  0  0  0  0  0  0  0  0
  -36.4980  148.1710    2.0850 N   0  0  0  0  0  0  0  0  0  0  0  0
  -42.0560  144.9610   -5.0170 C   0  0  0  0  0  0  0  0  0  0  0  0
  -42.1650  144.7750   -6.4540 O   0  0  0  0  0  0  0  0  0  0  0  0
  -41.6370  146.1120   -6.6720 C   0  0  0  0  0  0  0  0  0  0  0  0
  -43.4230  147.3560   -3.9309 H   0  0  0  0  0  0  0  0  0  0  0  0
  -43.1457  148.2326   -5.4741 H   0  0  0  0  0  0  0  0  0  0  0  0
  -44.0405  146.6750   -5.4741 H   0  0  0  0  0  0  0  0  0  0  0  0
  -39.8135  146.9636   -4.9708 H   0  0  0  0  0  0  0  0  0  0  0  0
  -40.9437  148.2384   -4.3938 H   0  0  0  0  0  0  0  0  0  0  0  0
  -40.5544  146.1694   -0.6521 H   0  0  0  0  0  0  0  0  0  0  0  0
  -38.6115  146.5233    0.8861 H   0  0  0  0  0  0  0  0  0  0  0  0
  -38.2660  147.6162   -4.0097 H   0  0  0  0  0  0  0  0  0  0  0  0
  -34.2604  148.2665   -1.2087 H   0  0  0  0  0  0  0  0  0  0  0  0
  -33.6760  146.8970    0.7025 H   0  0  0  0  0  0  0  0  0  0  0  0
  -32.9560  147.0139    3.0959 H   0  0  0  0  0  0  0  0  0  0  0  0
  -33.4329  147.5594    5.4157 H   0  0  0  0  0  0  0  0  0  0  0  0
  -35.0070  148.3883    7.1601 H   0  0  0  0  0  0  0  0  0  0  0  0
  -37.2873  149.1291    6.5057 H   0  0  0  0  0  0  0  0  0  0  0  0
  -38.4718  149.8581    6.1435 H   0  0  0  0  0  0  0  0  0  0  0  0
  -38.2340  151.1481    4.8983 H   0  0  0  0  0  0  0  0  0  0  0  0
  -40.7556  149.7879    5.8145 H   0  0  0  0  0  0  0  0  0  0  0  0
  -40.4577  151.5007    5.3225 H   0  0  0  0  0  0  0  0  0  0  0  0
  -40.2779  150.7948    2.9784 H   0  0  0  0  0  0  0  0  0  0  0  0
  -42.5610  150.3670    2.6480 H   0  0  0  0  0  0  0  0  0  0  0  0
  -42.7680  149.7630    4.1500 H   0  0  0  0  0  0  0  0  0  0  0  0
  -41.4341  148.0829    3.5998 H   0  0  0  0  0  0  0  0  0  0  0  0
  -40.4086  148.6470    2.2095 H   0  0  0  0  0  0  0  0  0  0  0  0
  -39.5779  147.6823    4.9480 H   0  0  0  0  0  0  0  0  0  0  0  0
  -38.8804  147.3135    3.3406 H   0  0  0  0  0  0  0  0  0  0  0  0
  -41.1750  144.4764   -4.5709 H   0  0  0  0  0  0  0  0  0  0  0  0
  -42.8369  144.5633   -4.3521 H   0  0  0  0  0  0  0  0  0  0  0  0
  -40.5728  146.1310   -6.9499 H   0  0  0  0  0  0  0  0  0  0  0  0
  -42.0448  146.7383   -7.4792 H   0  0  0  0  0  0  0  0  0  0  0  0
  1  2  1  0
  2  3  1  0
  3  4  1  0
  4  5  1  0
  5  6  2  0
  6  7  1  0
  7  8  2  0
  8  9  1  0
  9 10  2  0
  9 11  1  0
 11 12  2  0
 12 13  1  0
 13 14  1  0
 14 15  1  0
 15 16  2  0
 16 17  1  0
 17 18  2  0
 18 19  1  0
 19 20  2  0
 20 21  1  0
 21 22  1  0
 22 23  1  0
 23 24  1  0
 24 25  1  0
 25 26  1  0
 25 27  1  0
 27 28  1  0
 21 29  2  0
 29 30  1  0
  2 31  1  0
 31 32  1  0
 32 33  1  0
 33  2  1  0
 10  5  1  0
 30 14  2  0
 13  8  1  0
 29 17  1  0
 28 22  1  0
  1 34  1  0
  1 35  1  0
  1 36  1  0
  3 37  1  0
  3 38  1  0
  6 39  1  0
  7 40  1  0
 10 41  1  0
 12 42  1  0
 15 43  1  0
 16 44  1  0
 18 45  1  0
 19 46  1  0
 20 47  1  0
 23 48  1  0
 23 49  1  0
 24 50  1  0
 24 51  1  0
 25 52  1  0
 26 53  1  0
 26 54  1  0
 27 55  1  0
 27 56  1  0
 28 57  1  0
 28 58  1  0
 31 59  1  0
 31 60  1  0
 33 61  1  0
 33 62  1  0
M  END
>  <meeko>  (9) 
{"is_sidechain": false}

>  <vina_affinity_kcal_mol>  (9) 
-8.225

>  <pose_rank>  (9) 
9

$$$$

     RDKit          3D

 62 67  0  0  0  0  0  0  0  0999 V2000
  -40.3400  158.3400    2.4780 C   0  0  0  0  0  0  0  0  0  0  0  0
  -39.1200  158.7220    1.6380 C   0  0  0  0  0  0  0  0  0  0  0  0
  -37.8450  158.0770    2.1780 C   0  0  0  0  0  0  0  0  0  0  0  0
  -37.9940  157.8030    3.5730 O   0  0  0  0  0  0  0  0  0  0  0  0
  -37.2620  156.7680    4.0890 C   0  0  0  0  0  0  0  0  0  0  0  0
  -38.0160  155.6580    4.4670 C   0  0  0  0  0  0  0  0  0  0  0  0
  -37.4270  154.5110    5.0160 C   0  0  0  0  0  0  0  0  0  0  0  0
  -36.0350  154.5130    5.2010 C   0  0  0  0  0  0  0  0  0  0  0  0
  -35.2620  155.6010    4.7820 C   0  0  0  0  0  0  0  0  0  0  0  0
  -35.8750  156.7430    4.2370 C   0  0  0  0  0  0  0  0  0  0  0  0
  -33.9270  155.3670    4.9540 N   0  0  0  0  0  0  0  0  0  0  0  0
  -33.8620  154.1590    5.4620 C   0  0  0  0  0  0  0  0  0  0  0  0
  -35.1050  153.6070    5.7030 N   0  0  0  0  0  0  0  0  0  0  0  0
  -35.2760  152.3500    6.3550 C   0  0  0  0  0  0  0  0  0  0  0  0
  -35.3860  152.2500    7.7290 C   0  0  0  0  0  0  0  0  0  0  0  0
  -35.5400  150.9850    8.2910 C   0  0  0  0  0  0  0  0  0  0  0  0
  -35.5700  149.8470    7.4770 C   0  0  0  0  0  0  0  0  0  0  0  0
  -35.7170  148.5710    8.0460 C   0  0  0  0  0  0  0  0  0  0  0  0
  -35.7320  147.4380    7.2420 C   0  0  0  0  0  0  0  0  0  0  0  0
  -35.6030  147.5780    5.8650 C   0  0  0  0  0  0  0  0  0  0  0  0
  -35.4640  148.8470    5.2730 C   0  0  0  0  0  0  0  0  0  0  0  0
  -35.3470  148.8490    3.8530 N   0  0  0  0  0  0  0  0  0  0  0  0
  -36.6490  148.6130    3.2010 C   0  0  0  0  0  0  0  0  0  0  0  0
  -36.4710  148.2830    1.7120 C   0  0  0  0  0  0  0  0  0  0  0  0
  -35.1960  148.9210    1.1610 C   0  0  0  0  0  0  0  0  0  0  0  0
  -35.0640  148.6770   -0.2790 N   0  0  0  0  0  0  0  0  0  0  0  0
  -33.9530  148.4040    1.9020 C   0  0  0  0  0  0  0  0  0  0  0  0
  -34.2660  147.9960    3.3470 C   0  0  0  0  0  0  0  0  0  0  0  0
  -35.4390  150.0120    6.0830 C   0  0  0  0  0  0  0  0  0  0  0  0
  -35.2810  151.2510    5.5540 N   0  0  0  0  0  0  0  0  0  0  0  0
  -39.3710  158.5910    0.1220 C   0  0  0  0  0  0  0  0  0  0  0  0
  -39.6590  160.0120    0.0230 O   0  0  0  0  0  0  0  0  0  0  0  0
  -39.0530  160.2310    1.3260 C   0  0  0  0  0  0  0  0  0  0  0  0
  -40.0890  158.4186    3.5461 H   0  0  0  0  0  0  0  0  0  0  0  0
  -41.1726  159.0205    2.2460 H   0  0  0  0  0  0  0  0  0  0  0  0
  -40.6358  157.3062    2.2460 H   0  0  0  0  0  0  0  0  0  0  0  0
  -37.6551  157.1368    1.6395 H   0  0  0  0  0  0  0  0  0  0  0  0
  -36.9997  158.7655    2.0315 H   0  0  0  0  0  0  0  0  0  0  0  0
  -39.1072  155.6833    4.3301 H   0  0  0  0  0  0  0  0  0  0  0  0
  -38.0354  153.6374    5.2930 H   0  0  0  0  0  0  0  0  0  0  0  0
  -35.2675  157.6074    3.9306 H   0  0  0  0  0  0  0  0  0  0  0  0
  -32.9157  153.6397    5.6740 H   0  0  0  0  0  0  0  0  0  0  0  0
  -35.3527  153.1479    8.3635 H   0  0  0  0  0  0  0  0  0  0  0  0
  -35.6387  150.8797    9.3815 H   0  0  0  0  0  0  0  0  0  0  0  0
  -35.8210  148.4681    9.1362 H   0  0  0  0  0  0  0  0  0  0  0  0
  -35.8448  146.4400    7.6907 H   0  0  0  0  0  0  0  0  0  0  0  0
  -35.6097  146.6817    5.2274 H   0  0  0  0  0  0  0  0  0  0  0  0
  -37.1519  147.7703    3.6979 H   0  0  0  0  0  0  0  0  0  0  0  0
  -37.2527  149.5286    3.2857 H   0  0  0  0  0  0  0  0  0  0  0  0
  -36.4095  147.1915    1.5898 H   0  0  0  0  0  0  0  0  0  0  0  0
  -37.3325  148.6835    1.1576 H   0  0  0  0  0  0  0  0  0  0  0  0
  -35.2723  150.0060    1.3252 H   0  0  0  0  0  0  0  0  0  0  0  0
  -35.5520  149.4090   -0.7950 H   0  0  0  0  0  0  0  0  0  0  0  0
  -34.0820  148.7470   -0.5450 H   0  0  0  0  0  0  0  0  0  0  0  0
  -33.5590  147.5289    1.3645 H   0  0  0  0  0  0  0  0  0  0  0  0
  -33.2161  149.2201    1.9343 H   0  0  0  0  0  0  0  0  0  0  0  0
  -34.5821  146.9428    3.3740 H   0  0  0  0  0  0  0  0  0  0  0  0
  -33.3695  148.1163    3.9729 H   0  0  0  0  0  0  0  0  0  0  0  0
  -38.4864  158.2749   -0.4503 H   0  0  0  0  0  0  0  0  0  0  0  0
  -40.0994  157.8564   -0.2519 H   0  0  0  0  0  0  0  0  0  0  0  0
  -38.0295  160.6314    1.2797 H   0  0  0  0  0  0  0  0  0  0  0  0
  -39.4984  160.9558    2.0234 H   0  0  0  0  0  0  0  0  0  0  0  0
  1  2  1  0
  2  3  1  0
  3  4  1  0
  4  5  1  0
  5  6  2  0
  6  7  1  0
  7  8  2  0
  8  9  1  0
  9 10  2  0
  9 11  1  0
 11 12  2  0
 12 13  1  0
 13 14  1  0
 14 15  1  0
 15 16  2  0
 16 17  1  0
 17 18  2  0
 18 19  1  0
 19 20  2  0
 20 21  1  0
 21 22  1  0
 22 23  1  0
 23 24  1  0
 24 25  1  0
 25 26  1  0
 25 27  1  0
 27 28  1  0
 21 29  2  0
 29 30  1  0
  2 31  1  0
 31 32  1  0
 32 33  1  0
 33  2  1  0
 10  5  1  0
 30 14  2  0
 13  8  1  0
 29 17  1  0
 28 22  1  0
  1 34  1  0
  1 35  1  0
  1 36  1  0
  3 37  1  0
  3 38  1  0
  6 39  1  0
  7 40  1  0
 10 41  1  0
 12 42  1  0
 15 43  1  0
 16 44  1  0
 18 45  1  0
 19 46  1  0
 20 47  1  0
 23 48  1  0
 23 49  1  0
 24 50  1  0
 24 51  1  0
 25 52  1  0
 26 53  1  0
 26 54  1  0
 27 55  1  0
 27 56  1  0
 28 57  1  0
 28 58  1  0
 31 59  1  0
 31 60  1  0
 33 61  1  0
 33 62  1  0
M  END
>  <meeko>  (10) 
{"is_sidechain": false}

>  <vina_affinity_kcal_mol>  (10) 
-8.179

>  <pose_rank>  (10) 
10

$$$$
