
     RDKit          3D

 64 69  0  0  0  0  0  0  0  0999 V2000
   -8.9530    9.3970  -19.6520 C   0  0  0  0  0  0  0  0  0  0  0  0
   -9.3110    8.0820  -19.1810 N   0  0  0  0  0  0  0  0  0  0  0  0
   -9.7010    7.7410  -17.9190 C   0  0  0  0  0  0  0  0  0  0  0  0
   -9.9350    6.3860  -17.9480 C   0  0  0  0  0  0  0  0  0  0  0  0
  -10.3720    5.5220  -16.8610 C   0  0  0  0  0  0  0  0  0  0  0  0
   -9.6340    4.4420  -16.3100 C   0  0  0  0  0  0  0  0  0  0  0  0
  -10.4100    3.8760  -15.3160 C   0  0  0  0  0  0  0  0  0  0  0  0
  -10.2350    2.7800  -14.4010 C   0  0  0  0  0  0  0  0  0  0  0  0
   -9.1510    1.9110  -14.3990 N   0  0  0  0  0  0  0  0  0  0  0  0
   -8.4630    1.5110  -15.6400 C   0  0  0  0  0  0  0  0  0  0  0  0
   -8.0240    0.0310  -15.6330 C   0  0  0  0  0  0  0  0  0  0  0  0
   -7.1870   -0.2590  -14.4700 N   0  0  0  0  0  0  0  0  0  0  0  0
   -6.5970   -1.5040  -14.4040 C   0  0  0  0  0  0  0  0  0  0  0  0
   -6.4670   -2.2200  -15.5320 N   0  0  0  0  0  0  0  0  0  0  0  0
   -5.8610   -3.4240  -15.4510 C   0  0  0  0  0  0  0  0  0  0  0  0
   -5.3450   -3.9610  -14.2920 C   0  0  0  0  0  0  0  0  0  0  0  0
   -4.6830   -5.3290  -14.2050 C   0  0  1  0  0  0  0  0  0  0  0  0
   -3.3700   -5.1270  -13.4120 C   0  0  0  0  0  0  0  0  0  0  0  0
   -5.4820   -6.2740  -13.3980 N   0  0  0  0  0  0  0  0  0  0  0  0
   -4.4830   -5.9730  -15.5960 C   0  0  0  0  0  0  0  0  0  0  0  0
   -5.4380   -6.8970  -16.0830 C   0  0  0  0  0  0  0  0  0  0  0  0
   -5.2880   -7.5080  -17.3290 C   0  0  0  0  0  0  0  0  0  0  0  0
   -4.1770   -7.2120  -18.1050 C   0  0  0  0  0  0  0  0  0  0  0  0
   -4.0300   -7.7980  -19.3000 F   0  0  0  0  0  0  0  0  0  0  0  0
   -3.2180   -6.3160  -17.6570 C   0  0  0  0  0  0  0  0  0  0  0  0
   -3.3660   -5.7010  -16.4110 C   0  0  0  0  0  0  0  0  0  0  0  0
   -5.5450   -3.1550  -13.1880 C   0  0  0  0  0  0  0  0  0  0  0  0
   -6.1490   -1.9490  -13.2210 N   0  0  0  0  0  0  0  0  0  0  0  0
   -7.5030    0.4340  -13.2180 C   0  0  0  0  0  0  0  0  0  0  0  0
   -8.9280    1.0240  -13.2390 C   0  0  0  0  0  0  0  0  0  0  0  0
  -11.1690    2.6140  -13.5060 N   0  0  0  0  0  0  0  0  0  0  0  0
  -12.2700    3.4300  -13.5010 C   0  0  0  0  0  0  0  0  0  0  0  0
  -12.5230    4.4070  -14.3110 N   0  0  0  0  0  0  0  0  0  0  0  0
  -11.5570    4.6100  -15.2170 N   0  0  0  0  0  0  0  0  0  0  0  0
  -11.5600    5.5940  -16.1680 C   0  0  0  0  0  0  0  0  0  0  0  0
   -9.6560    6.0050  -19.2760 C   0  0  0  0  0  0  0  0  0  0  0  0
   -9.2770    7.0400  -20.0330 N   0  0  0  0  0  0  0  0  0  0  0  0
   -8.7730   10.0582  -18.7916 H   0  0  0  0  0  0  0  0  0  0  0  0
   -8.0399    9.3320  -20.2619 H   0  0  0  0  0  0  0  0  0  0  0  0
   -9.7731    9.8039  -20.2619 H   0  0  0  0  0  0  0  0  0  0  0  0
   -9.8068    8.4128  -17.0544 H   0  0  0  0  0  0  0  0  0  0  0  0
   -8.6295    4.1156  -16.6174 H   0  0  0  0  0  0  0  0  0  0  0  0
   -9.1463    1.6705  -16.4872 H   0  0  0  0  0  0  0  0  0  0  0  0
   -7.5541    2.1246  -15.7261 H   0  0  0  0  0  0  0  0  0  0  0  0
   -8.9177   -0.6097  -15.6024 H   0  0  0  0  0  0  0  0  0  0  0  0
   -7.4406   -0.1670  -16.5443 H   0  0  0  0  0  0  0  0  0  0  0  0
   -5.7734   -4.0166  -16.3736 H   0  0  0  0  0  0  0  0  0  0  0  0
   -3.5842   -5.1600  -12.3336 H   0  0  0  0  0  0  0  0  0  0  0  0
   -2.6596   -5.9264  -13.6693 H   0  0  0  0  0  0  0  0  0  0  0  0
   -2.9327   -4.1510  -13.6693 H   0  0  0  0  0  0  0  0  0  0  0  0
   -5.3020   -6.0900  -12.4100 H   0  0  0  0  0  0  0  0  0  0  0  0
   -5.1430   -7.2210  -13.5590 H   0  0  0  0  0  0  0  0  0  0  0  0
   -6.3166   -7.1387  -15.4669 H   0  0  0  0  0  0  0  0  0  0  0  0
   -6.0448   -8.2186  -17.6927 H   0  0  0  0  0  0  0  0  0  0  0  0
   -2.3416   -6.0896  -18.2820 H   0  0  0  0  0  0  0  0  0  0  0  0
   -2.5993   -4.9941  -16.0611 H   0  0  0  0  0  0  0  0  0  0  0  0
   -5.1871   -3.5218  -12.2147 H   0  0  0  0  0  0  0  0  0  0  0  0
   -7.4247   -0.2803  -12.3851 H   0  0  0  0  0  0  0  0  0  0  0  0
   -6.7898    1.2622  -13.0939 H   0  0  0  0  0  0  0  0  0  0  0  0
   -9.6524    0.1973  -13.2815 H   0  0  0  0  0  0  0  0  0  0  0  0
   -9.0567    1.6248  -12.3266 H   0  0  0  0  0  0  0  0  0  0  0  0
  -13.0217    3.2327  -12.7225 H   0  0  0  0  0  0  0  0  0  0  0  0
  -12.3699    6.3164  -16.3476 H   0  0  0  0  0  0  0  0  0  0  0  0
   -9.7405    4.9731  -19.6476 H   0  0  0  0  0  0  0  0  0  0  0  0
  1  2  1  0
  2  3  1  0
  3  4  2  0
  4  5  1  0
  5  6  1  0
  6  7  2  0
  7  8  1  0
  8  9  1  0
  9 10  1  0
 10 11  1  0
 11 12  1  0
 12 13  1  0
 13 14  2  0
 14 15  1  0
 15 16  2  0
 16 17  1  0
 17 18  1  0
 17 19  1  1
 17 20  1  0
 20 21  1  0
 21 22  2  0
 22 23  1  0
 23 24  1  0
 23 25  2  0
 25 26  1  0
 16 27  1  0
 27 28  2  0
 12 29  1  0
 29 30  1  0
  8 31  2  0
 31 32  1  0
 32 33  2  0
 33 34  1  0
 34 35  1  0
  4 36  1  0
 36 37  2  0
 37  2  1  0
 35  5  2  0
 34  7  1  0
 30  9  1  0
 28 13  1  0
 26 20  2  0
  1 38  1  0
  1 39  1  0
  1 40  1  0
  3 41  1  0
  6 42  1  0
 10 43  1  0
 10 44  1  0
 11 45  1  0
 11 46  1  0
 15 47  1  0
 18 48  1  0
 18 49  1  0
 18 50  1  0
 19 51  1  0
 19 52  1  0
 21 53  1  0
 22 54  1  0
 25 55  1  0
 26 56  1  0
 27 57  1  0
 29 58  1  0
 29 59  1  0
 30 60  1  0
 30 61  1  0
 32 62  1  0
 35 63  1  0
 36 64  1  0
M  END
>  <meeko>  (1) 
{"is_sidechain": false}

>  <vina_affinity_kcal_mol>  (1) 
-10.138

>  <pose_rank>  (1) 
1

$$$$

     RDKit          3D

 64 69  0  0  0  0  0  0  0  0999 V2000
  -10.0020    7.7270  -21.7690 C   0  0  0  0  0  0  0  0  0  0  0  0
   -9.9360    7.5200  -20.3430 N   0  0  0  0  0  0  0  0  0  0  0  0
  -10.2720    6.3870  -19.6620 C   0  0  0  0  0  0  0  0  0  0  0  0
  -10.0440    6.6620  -18.3340 C   0  0  0  0  0  0  0  0  0  0  0  0
  -10.2420    5.7900  -17.1850 C   0  0  0  0  0  0  0  0  0  0  0  0
   -9.3200    4.8230  -16.7080 C   0  0  0  0  0  0  0  0  0  0  0  0
   -9.8990    4.2040  -15.6150 C   0  0  0  0  0  0  0  0  0  0  0  0
   -9.4850    3.1670  -14.7080 C   0  0  0  0  0  0  0  0  0  0  0  0
   -8.3130    2.4310  -14.8220 N   0  0  0  0  0  0  0  0  0  0  0  0
   -7.7370    2.0710  -16.1300 C   0  0  0  0  0  0  0  0  0  0  0  0
   -7.1270    0.6530  -16.1490 C   0  0  0  0  0  0  0  0  0  0  0  0
   -6.1270    0.5020  -15.0930 N   0  0  0  0  0  0  0  0  0  0  0  0
   -5.3890   -0.6630  -15.0750 C   0  0  0  0  0  0  0  0  0  0  0  0
   -5.3720   -1.4010  -13.9540 N   0  0  0  0  0  0  0  0  0  0  0  0
   -4.6660   -2.5540  -13.9660 C   0  0  0  0  0  0  0  0  0  0  0  0
   -3.9800   -3.0360  -15.0590 C   0  0  0  0  0  0  0  0  0  0  0  0
   -3.1700   -4.3250  -15.0570 C   0  0  1  0  0  0  0  0  0  0  0  0
   -1.7190   -3.9270  -15.4230 C   0  0  0  0  0  0  0  0  0  0  0  0
   -3.0810   -4.9140  -13.7040 N   0  0  0  0  0  0  0  0  0  0  0  0
   -3.7780   -5.4020  -15.9840 C   0  0  0  0  0  0  0  0  0  0  0  0
   -3.0620   -5.8220  -17.1310 C   0  0  0  0  0  0  0  0  0  0  0  0
   -3.5810   -6.7850  -17.9980 C   0  0  0  0  0  0  0  0  0  0  0  0
   -4.8260   -7.3370  -17.7390 C   0  0  0  0  0  0  0  0  0  0  0  0
   -5.3270   -8.2590  -18.5700 F   0  0  0  0  0  0  0  0  0  0  0  0
   -5.5590   -6.9440  -16.6280 C   0  0  0  0  0  0  0  0  0  0  0  0
   -5.0410   -5.9820  -15.7560 C   0  0  0  0  0  0  0  0  0  0  0  0
   -4.0470   -2.1960  -16.1530 C   0  0  0  0  0  0  0  0  0  0  0  0
   -4.7340   -1.0350  -16.1840 N   0  0  0  0  0  0  0  0  0  0  0  0
   -6.3720    1.1950  -13.8250 C   0  0  0  0  0  0  0  0  0  0  0  0
   -7.8490    1.6150  -13.6820 C   0  0  0  0  0  0  0  0  0  0  0  0
  -10.2790    2.9240  -13.7010 N   0  0  0  0  0  0  0  0  0  0  0  0
  -11.4610    3.6070  -13.5780 C   0  0  0  0  0  0  0  0  0  0  0  0
  -11.9240    4.5210  -14.3690 N   0  0  0  0  0  0  0  0  0  0  0  0
  -11.1040    4.8040  -15.3900 N   0  0  0  0  0  0  0  0  0  0  0  0
  -11.3380    5.7470  -16.3530 C   0  0  0  0  0  0  0  0  0  0  0  0
   -9.5720    7.9900  -18.3210 C   0  0  0  0  0  0  0  0  0  0  0  0
   -9.5020    8.5170  -19.5480 N   0  0  0  0  0  0  0  0  0  0  0  0
  -10.3302    8.7564  -21.9753 H   0  0  0  0  0  0  0  0  0  0  0  0
   -9.0074    7.5640  -22.2096 H   0  0  0  0  0  0  0  0  0  0  0  0
  -10.7188    7.0184  -22.2096 H   0  0  0  0  0  0  0  0  0  0  0  0
  -10.6485    5.4454  -20.0881 H   0  0  0  0  0  0  0  0  0  0  0  0
   -8.3276    4.6056  -17.1297 H   0  0  0  0  0  0  0  0  0  0  0  0
   -8.5316    2.1213  -16.8890 H   0  0  0  0  0  0  0  0  0  0  0  0
   -6.9245    2.7823  -16.3395 H   0  0  0  0  0  0  0  0  0  0  0  0
   -7.9275   -0.0857  -15.9955 H   0  0  0  0  0  0  0  0  0  0  0  0
   -6.6386    0.4931  -17.1216 H   0  0  0  0  0  0  0  0  0  0  0  0
   -4.6375   -3.1474  -13.0402 H   0  0  0  0  0  0  0  0  0  0  0  0
   -1.1390   -3.7679  -14.5020 H   0  0  0  0  0  0  0  0  0  0  0  0
   -1.2560   -4.7313  -16.0135 H   0  0  0  0  0  0  0  0  0  0  0  0
   -1.7312   -2.9990  -16.0135 H   0  0  0  0  0  0  0  0  0  0  0  0
   -2.9530   -5.9210  -13.7960 H   0  0  0  0  0  0  0  0  0  0  0  0
   -3.9770   -4.8000  -13.2320 H   0  0  0  0  0  0  0  0  0  0  0  0
   -2.0770   -5.3806  -17.3431 H   0  0  0  0  0  0  0  0  0  0  0  0
   -3.0064   -7.1035  -18.8802 H   0  0  0  0  0  0  0  0  0  0  0  0
   -6.5461   -7.3888  -16.4339 H   0  0  0  0  0  0  0  0  0  0  0  0
   -5.6286   -5.6734  -14.8787 H   0  0  0  0  0  0  0  0  0  0  0  0
   -3.5030   -2.4937  -17.0615 H   0  0  0  0  0  0  0  0  0  0  0  0
   -6.1104    0.5226  -12.9947 H   0  0  0  0  0  0  0  0  0  0  0  0
   -5.7530    2.1041  -13.8053 H   0  0  0  0  0  0  0  0  0  0  0  0
   -8.4698    0.7091  -13.6196 H   0  0  0  0  0  0  0  0  0  0  0  0
   -7.9381    2.2268  -12.7722 H   0  0  0  0  0  0  0  0  0  0  0  0
  -12.0859    3.3496  -12.7101 H   0  0  0  0  0  0  0  0  0  0  0  0
  -12.2442    6.3636  -16.4463 H   0  0  0  0  0  0  0  0  0  0  0  0
   -9.2928    8.5316  -17.4052 H   0  0  0  0  0  0  0  0  0  0  0  0
  1  2  1  0
  2  3  1  0
  3  4  2  0
  4  5  1  0
  5  6  1  0
  6  7  2  0
  7  8  1  0
  8  9  1  0
  9 10  1  0
 10 11  1  0
 11 12  1  0
 12 13  1  0
 13 14  2  0
 14 15  1  0
 15 16  2  0
 16 17  1  0
 17 18  1  0
 17 19  1  1
 17 20  1  0
 20 21  1  0
 21 22  2  0
 22 23  1  0
 23 24  1  0
 23 25  2  0
 25 26  1  0
 16 27  1  0
 27 28  2  0
 12 29  1  0
 29 30  1  0
  8 31  2  0
 31 32  1  0
 32 33  2  0
 33 34  1  0
 34 35  1  0
  4 36  1  0
 36 37  2  0
 37  2  1  0
 35  5  2  0
 34  7  1  0
 30  9  1  0
 28 13  1  0
 26 20  2  0
  1 38  1  0
  1 39  1  0
  1 40  1  0
  3 41  1  0
  6 42  1  0
 10 43  1  0
 10 44  1  0
 11 45  1  0
 11 46  1  0
 15 47  1  0
 18 48  1  0
 18 49  1  0
 18 50  1  0
 19 51  1  0
 19 52  1  0
 21 53  1  0
 22 54  1  0
 25 55  1  0
 26 56  1  0
 27 57  1  0
 29 58  1  0
 29 59  1  0
 30 60  1  0
 30 61  1  0
 32 62  1  0
 35 63  1  0
 36 64  1  0
M  END
>  <meeko>  (2) 
{"is_sidechain": false}

>  <vina_affinity_kcal_mol>  (2) 
-9.996

>  <pose_rank>  (2) 
2

$$$$

     RDKit          3D

 64 69  0  0  0  0  0  0  0  0999 V2000
   -5.0420   -7.9450  -12.8410 C   0  0  0  0  0  0  0  0  0  0  0  0
   -4.9260   -7.0720  -13.9840 N   0  0  0  0  0  0  0  0  0  0  0  0
   -4.1750   -5.9370  -14.0760 C   0  0  0  0  0  0  0  0  0  0  0  0
   -4.3830   -5.4490  -15.3460 C   0  0  0  0  0  0  0  0  0  0  0  0
   -3.8160   -4.2560  -15.9580 C   0  0  0  0  0  0  0  0  0  0  0  0
   -4.3540   -2.9460  -15.8760 C   0  0  0  0  0  0  0  0  0  0  0  0
   -3.5250   -2.1130  -16.6060 C   0  0  0  0  0  0  0  0  0  0  0  0
   -3.5180   -0.7060  -16.9030 C   0  0  0  0  0  0  0  0  0  0  0  0
   -4.5180    0.1890  -16.5420 N   0  0  0  0  0  0  0  0  0  0  0  0
   -5.9380   -0.2020  -16.4900 C   0  0  0  0  0  0  0  0  0  0  0  0
   -6.8860    0.9090  -16.9890 C   0  0  0  0  0  0  0  0  0  0  0  0
   -6.6720    2.1500  -16.2470 N   0  0  0  0  0  0  0  0  0  0  0  0
   -7.5450    3.1920  -16.4800 C   0  0  0  0  0  0  0  0  0  0  0  0
   -8.7590    3.1580  -15.9080 N   0  0  0  0  0  0  0  0  0  0  0  0
   -9.5900    4.2010  -16.1250 C   0  0  0  0  0  0  0  0  0  0  0  0
   -9.2690    5.3100  -16.8770 C   0  0  0  0  0  0  0  0  0  0  0  0
  -10.2190    6.4710  -17.1350 C   0  0  1  0  0  0  0  0  0  0  0  0
  -11.6450    5.9360  -16.8600 C   0  0  0  0  0  0  0  0  0  0  0  0
  -10.0220    7.5660  -16.1610 N   0  0  0  0  0  0  0  0  0  0  0  0
  -10.0380    7.0770  -18.5450 C   0  0  0  0  0  0  0  0  0  0  0  0
  -10.4090    6.3220  -19.6830 C   0  0  0  0  0  0  0  0  0  0  0  0
  -10.2510    6.8290  -20.9740 C   0  0  0  0  0  0  0  0  0  0  0  0
   -9.7140    8.0950  -21.1490 C   0  0  0  0  0  0  0  0  0  0  0  0
   -9.5600    8.5830  -22.3860 F   0  0  0  0  0  0  0  0  0  0  0  0
   -9.3320    8.8610  -20.0570 C   0  0  0  0  0  0  0  0  0  0  0  0
   -9.4910    8.3570  -18.7630 C   0  0  0  0  0  0  0  0  0  0  0  0
   -8.0070    5.2380  -17.4340 C   0  0  0  0  0  0  0  0  0  0  0  0
   -7.1470    4.2150  -17.2490 N   0  0  0  0  0  0  0  0  0  0  0  0
   -5.3010    2.4640  -15.8360 C   0  0  0  0  0  0  0  0  0  0  0  0
   -4.2660    1.6410  -16.6300 C   0  0  0  0  0  0  0  0  0  0  0  0
   -2.4790   -0.2520  -17.5490 N   0  0  0  0  0  0  0  0  0  0  0  0
   -1.4910   -1.1120  -17.9510 C   0  0  0  0  0  0  0  0  0  0  0  0
   -1.4410   -2.3920  -17.7610 N   0  0  0  0  0  0  0  0  0  0  0  0
   -2.4860   -2.8670  -17.0710 N   0  0  0  0  0  0  0  0  0  0  0  0
   -2.6660   -4.1740  -16.7110 C   0  0  0  0  0  0  0  0  0  0  0  0
   -5.2760   -6.3640  -15.9370 C   0  0  0  0  0  0  0  0  0  0  0  0
   -5.6080   -7.3600  -15.1090 N   0  0  0  0  0  0  0  0  0  0  0  0
   -4.9633   -7.3525  -11.9176 H   0  0  0  0  0  0  0  0  0  0  0  0
   -6.0159   -8.4557  -12.8670 H   0  0  0  0  0  0  0  0  0  0  0  0
   -4.2353   -8.6923  -12.8670 H   0  0  0  0  0  0  0  0  0  0  0  0
   -3.5344   -5.5011  -13.2952 H   0  0  0  0  0  0  0  0  0  0  0  0
   -5.2625   -2.6476  -15.3324 H   0  0  0  0  0  0  0  0  0  0  0  0
   -6.0799   -1.0931  -17.1192 H   0  0  0  0  0  0  0  0  0  0  0  0
   -6.1873   -0.4001  -15.4371 H   0  0  0  0  0  0  0  0  0  0  0  0
   -6.6967    1.0910  -18.0572 H   0  0  0  0  0  0  0  0  0  0  0  0
   -7.9243    0.5811  -16.8330 H   0  0  0  0  0  0  0  0  0  0  0  0
  -10.5909    4.1621  -15.6704 H   0  0  0  0  0  0  0  0  0  0  0  0
  -11.8103    5.8740  -15.7743 H   0  0  0  0  0  0  0  0  0  0  0  0
  -12.3846    6.6178  -17.3051 H   0  0  0  0  0  0  0  0  0  0  0  0
  -11.7536    4.9360  -17.3051 H   0  0  0  0  0  0  0  0  0  0  0  0
  -10.1630    7.1940  -15.2220 H   0  0  0  0  0  0  0  0  0  0  0  0
  -10.7580    8.2600  -16.2860 H   0  0  0  0  0  0  0  0  0  0  0  0
  -10.8305    5.3150  -19.5475 H   0  0  0  0  0  0  0  0  0  0  0  0
  -10.5503    6.2286  -21.8457 H   0  0  0  0  0  0  0  0  0  0  0  0
   -8.9048    9.8631  -20.2093 H   0  0  0  0  0  0  0  0  0  0  0  0
   -9.1844    8.9689  -17.9019 H   0  0  0  0  0  0  0  0  0  0  0  0
   -7.6807    6.0722  -18.0724 H   0  0  0  0  0  0  0  0  0  0  0  0
   -5.1134    3.5342  -16.0078 H   0  0  0  0  0  0  0  0  0  0  0  0
   -5.1957    2.2120  -14.7704 H   0  0  0  0  0  0  0  0  0  0  0  0
   -4.3085    1.9440  -17.6866 H   0  0  0  0  0  0  0  0  0  0  0  0
   -3.2748    1.8374  -16.1952 H   0  0  0  0  0  0  0  0  0  0  0  0
   -0.6462   -0.6654  -18.4958 H   0  0  0  0  0  0  0  0  0  0  0  0
   -2.0069   -5.0136  -16.9767 H   0  0  0  0  0  0  0  0  0  0  0  0
   -5.6575   -6.2698  -16.9644 H   0  0  0  0  0  0  0  0  0  0  0  0
  1  2  1  0
  2  3  1  0
  3  4  2  0
  4  5  1  0
  5  6  1  0
  6  7  2  0
  7  8  1  0
  8  9  1  0
  9 10  1  0
 10 11  1  0
 11 12  1  0
 12 13  1  0
 13 14  2  0
 14 15  1  0
 15 16  2  0
 16 17  1  0
 17 18  1  0
 17 19  1  1
 17 20  1  0
 20 21  1  0
 21 22  2  0
 22 23  1  0
 23 24  1  0
 23 25  2  0
 25 26  1  0
 16 27  1  0
 27 28  2  0
 12 29  1  0
 29 30  1  0
  8 31  2  0
 31 32  1  0
 32 33  2  0
 33 34  1  0
 34 35  1  0
  4 36  1  0
 36 37  2  0
 37  2  1  0
 35  5  2  0
 34  7  1  0
 30  9  1  0
 28 13  1  0
 26 20  2  0
  1 38  1  0
  1 39  1  0
  1 40  1  0
  3 41  1  0
  6 42  1  0
 10 43  1  0
 10 44  1  0
 11 45  1  0
 11 46  1  0
 15 47  1  0
 18 48  1  0
 18 49  1  0
 18 50  1  0
 19 51  1  0
 19 52  1  0
 21 53  1  0
 22 54  1  0
 25 55  1  0
 26 56  1  0
 27 57  1  0
 29 58  1  0
 29 59  1  0
 30 60  1  0
 30 61  1  0
 32 62  1  0
 35 63  1  0
 36 64  1  0
M  END
>  <meeko>  (3) 
{"is_sidechain": false}

>  <vina_affinity_kcal_mol>  (3) 
-9.69

>  <pose_rank>  (3) 
3

$$$$

     RDKit          3D

 64 69  0  0  0  0  0  0  0  0999 V2000
  -10.2870    8.1330  -21.5800 C   0  0  0  0  0  0  0  0  0  0  0  0
   -9.7760    7.6420  -20.3230 N   0  0  0  0  0  0  0  0  0  0  0  0
   -9.2860    6.3950  -20.0680 C   0  0  0  0  0  0  0  0  0  0  0  0
   -8.9220    6.3950  -18.7410 C   0  0  0  0  0  0  0  0  0  0  0  0
   -8.3430    5.3100  -17.9640 C   0  0  0  0  0  0  0  0  0  0  0  0
   -9.0440    4.4700  -17.0600 C   0  0  0  0  0  0  0  0  0  0  0  0
   -8.1260    3.5860  -16.5220 C   0  0  0  0  0  0  0  0  0  0  0  0
   -8.2020    2.5080  -15.5730 C   0  0  0  0  0  0  0  0  0  0  0  0
   -9.3390    2.1580  -14.8550 N   0  0  0  0  0  0  0  0  0  0  0  0
  -10.3190    3.1610  -14.4000 C   0  0  0  0  0  0  0  0  0  0  0  0
  -10.8890    2.8520  -12.9990 C   0  0  0  0  0  0  0  0  0  0  0  0
  -11.4740    1.5130  -12.9580 N   0  0  0  0  0  0  0  0  0  0  0  0
  -12.1540    1.1490  -11.8140 C   0  0  0  0  0  0  0  0  0  0  0  0
  -13.4340    1.5270  -11.6750 N   0  0  0  0  0  0  0  0  0  0  0  0
  -14.0920    1.1370  -10.5610 C   0  0  0  0  0  0  0  0  0  0  0  0
  -13.5450    0.3570   -9.5660 C   0  0  0  0  0  0  0  0  0  0  0  0
  -14.2860   -0.0600   -8.3040 C   0  0  1  0  0  0  0  0  0  0  0  0
  -13.6200    0.7060   -7.1350 C   0  0  0  0  0  0  0  0  0  0  0  0
  -15.6910    0.3980   -8.3170 N   0  0  0  0  0  0  0  0  0  0  0  0
  -14.3080   -1.5940   -8.1160 C   0  0  0  0  0  0  0  0  0  0  0  0
  -14.1200   -2.1430   -6.8250 C   0  0  0  0  0  0  0  0  0  0  0  0
  -14.1230   -3.5230   -6.6150 C   0  0  0  0  0  0  0  0  0  0  0  0
  -14.3070   -4.3770   -7.6930 C   0  0  0  0  0  0  0  0  0  0  0  0
  -14.3090   -5.7010   -7.4940 F   0  0  0  0  0  0  0  0  0  0  0  0
  -14.4880   -3.8740   -8.9730 C   0  0  0  0  0  0  0  0  0  0  0  0
  -14.4880   -2.4920   -9.1860 C   0  0  0  0  0  0  0  0  0  0  0  0
  -12.2210    0.0370   -9.7970 C   0  0  0  0  0  0  0  0  0  0  0  0
  -11.5240    0.4090  -10.8910 N   0  0  0  0  0  0  0  0  0  0  0  0
  -10.8220    0.4650  -13.7490 C   0  0  0  0  0  0  0  0  0  0  0  0
   -9.3870    0.8620  -14.1470 C   0  0  0  0  0  0  0  0  0  0  0  0
   -7.1140    1.8090  -15.3970 N   0  0  0  0  0  0  0  0  0  0  0  0
   -5.9650    2.1480  -16.0620 C   0  0  0  0  0  0  0  0  0  0  0  0
   -5.8020    3.1240  -16.8960 N   0  0  0  0  0  0  0  0  0  0  0  0
   -6.9200    3.8310  -17.1110 N   0  0  0  0  0  0  0  0  0  0  0  0
   -7.0310    4.8930  -17.9670 C   0  0  0  0  0  0  0  0  0  0  0  0
   -9.2360    7.6920  -18.2870 C   0  0  0  0  0  0  0  0  0  0  0  0
   -9.7560    8.4580  -19.2510 N   0  0  0  0  0  0  0  0  0  0  0  0
  -11.0683    8.8837  -21.3901 H   0  0  0  0  0  0  0  0  0  0  0  0
   -9.4688    8.5924  -22.1541 H   0  0  0  0  0  0  0  0  0  0  0  0
  -10.7134    7.2972  -22.1541 H   0  0  0  0  0  0  0  0  0  0  0  0
   -9.1994    5.5596  -20.7783 H   0  0  0  0  0  0  0  0  0  0  0  0
  -10.1187    4.5138  -16.8297 H   0  0  0  0  0  0  0  0  0  0  0  0
   -9.8265    4.1441  -14.3695 H   0  0  0  0  0  0  0  0  0  0  0  0
  -11.1599    3.1460  -15.1090 H   0  0  0  0  0  0  0  0  0  0  0  0
  -10.0779    2.9136  -12.2585 H   0  0  0  0  0  0  0  0  0  0  0  0
  -11.6751    3.5864  -12.7694 H   0  0  0  0  0  0  0  0  0  0  0  0
  -15.1352    1.4646  -10.4405 H   0  0  0  0  0  0  0  0  0  0  0  0
  -13.9761    0.2965   -6.1782 H   0  0  0  0  0  0  0  0  0  0  0  0
  -12.5276    0.5936   -7.1981 H   0  0  0  0  0  0  0  0  0  0  0  0
  -13.8831    1.7722   -7.1981 H   0  0  0  0  0  0  0  0  0  0  0  0
  -15.7030    1.4050   -8.4800 H   0  0  0  0  0  0  0  0  0  0  0  0
  -16.0910    0.2740   -7.3880 H   0  0  0  0  0  0  0  0  0  0  0  0
  -13.9684   -1.4683   -5.9696 H   0  0  0  0  0  0  0  0  0  0  0  0
  -13.9806   -3.9302   -5.6031 H   0  0  0  0  0  0  0  0  0  0  0  0
  -14.6314   -4.5616   -9.8196 H   0  0  0  0  0  0  0  0  0  0  0  0
  -14.6307   -2.1005  -10.2040 H   0  0  0  0  0  0  0  0  0  0  0  0
  -11.6989   -0.5624   -9.0366 H   0  0  0  0  0  0  0  0  0  0  0  0
  -10.7843   -0.4595  -13.1540 H   0  0  0  0  0  0  0  0  0  0  0  0
  -11.4052    0.3171  -14.6699 H   0  0  0  0  0  0  0  0  0  0  0  0
   -8.7744    0.9337  -13.2362 H   0  0  0  0  0  0  0  0  0  0  0  0
   -9.0022    0.0909  -14.8306 H   0  0  0  0  0  0  0  0  0  0  0  0
   -5.0830    1.5208  -15.8651 H   0  0  0  0  0  0  0  0  0  0  0  0
   -6.2140    5.3363  -18.5552 H   0  0  0  0  0  0  0  0  0  0  0  0
   -9.0715    8.0353  -17.2550 H   0  0  0  0  0  0  0  0  0  0  0  0
  1  2  1  0
  2  3  1  0
  3  4  2  0
  4  5  1  0
  5  6  1  0
  6  7  2  0
  7  8  1  0
  8  9  1  0
  9 10  1  0
 10 11  1  0
 11 12  1  0
 12 13  1  0
 13 14  2  0
 14 15  1  0
 15 16  2  0
 16 17  1  0
 17 18  1  0
 17 19  1  6
 17 20  1  0
 20 21  1  0
 21 22  2  0
 22 23  1  0
 23 24  1  0
 23 25  2  0
 25 26  1  0
 16 27  1  0
 27 28  2  0
 12 29  1  0
 29 30  1  0
  8 31  2  0
 31 32  1  0
 32 33  2  0
 33 34  1  0
 34 35  1  0
  4 36  1  0
 36 37  2  0
 37  2  1  0
 35  5  2  0
 34  7  1  0
 30  9  1  0
 28 13  1  0
 26 20  2  0
  1 38  1  0
  1 39  1  0
  1 40  1  0
  3 41  1  0
  6 42  1  0
 10 43  1  0
 10 44  1  0
 11 45  1  0
 11 46  1  0
 15 47  1  0
 18 48  1  0
 18 49  1  0
 18 50  1  0
 19 51  1  0
 19 52  1  0
 21 53  1  0
 22 54  1  0
 25 55  1  0
 26 56  1  0
 27 57  1  0
 29 58  1  0
 29 59  1  0
 30 60  1  0
 30 61  1  0
 32 62  1  0
 35 63  1  0
 36 64  1  0
M  END
>  <meeko>  (4) 
{"is_sidechain": false}

>  <vina_affinity_kcal_mol>  (4) 
-9.639

>  <pose_rank>  (4) 
4

$$$$

     RDKit          3D

 64 69  0  0  0  0  0  0  0  0999 V2000
  -10.2480    8.0060  -21.8510 C   0  0  0  0  0  0  0  0  0  0  0  0
   -9.7700    7.5710  -20.5610 N   0  0  0  0  0  0  0  0  0  0  0  0
   -9.2480    6.3510  -20.2480 C   0  0  0  0  0  0  0  0  0  0  0  0
   -8.9370    6.4040  -18.9090 C   0  0  0  0  0  0  0  0  0  0  0  0
   -8.3520    5.3630  -18.0770 C   0  0  0  0  0  0  0  0  0  0  0  0
   -9.0610    4.5180  -17.1840 C   0  0  0  0  0  0  0  0  0  0  0  0
   -8.1350    3.6870  -16.5800 C   0  0  0  0  0  0  0  0  0  0  0  0
   -8.2130    2.6310  -15.6060 C   0  0  0  0  0  0  0  0  0  0  0  0
   -9.3670    2.2520  -14.9330 N   0  0  0  0  0  0  0  0  0  0  0  0
  -10.4080    3.2240  -14.5530 C   0  0  0  0  0  0  0  0  0  0  0  0
  -11.0320    2.9280  -13.1720 C   0  0  0  0  0  0  0  0  0  0  0  0
  -11.5630    1.5660  -13.1220 N   0  0  0  0  0  0  0  0  0  0  0  0
  -12.2820    1.2030  -12.0020 C   0  0  0  0  0  0  0  0  0  0  0  0
  -13.4610    1.8000  -11.7690 N   0  0  0  0  0  0  0  0  0  0  0  0
  -14.1640    1.4110  -10.6820 C   0  0  0  0  0  0  0  0  0  0  0  0
  -13.7630    0.4250   -9.8070 C   0  0  0  0  0  0  0  0  0  0  0  0
  -14.5500    0.0080   -8.5730 C   0  0  1  0  0  0  0  0  0  0  0  0
  -15.5700    1.1400   -8.3040 C   0  0  0  0  0  0  0  0  0  0  0  0
  -15.3670   -1.1970   -8.8270 N   0  0  0  0  0  0  0  0  0  0  0  0
  -13.6330   -0.3080   -7.3700 C   0  0  0  0  0  0  0  0  0  0  0  0
  -12.9490    0.7440   -6.7170 C   0  0  0  0  0  0  0  0  0  0  0  0
  -12.1030    0.4990   -5.6340 C   0  0  0  0  0  0  0  0  0  0  0  0
  -11.9220   -0.8030   -5.1900 C   0  0  0  0  0  0  0  0  0  0  0  0
  -11.1100   -1.0410   -4.1530 F   0  0  0  0  0  0  0  0  0  0  0  0
  -12.5710   -1.8600   -5.8110 C   0  0  0  0  0  0  0  0  0  0  0  0
  -13.4200   -1.6170   -6.8940 C   0  0  0  0  0  0  0  0  0  0  0  0
  -12.5320   -0.1120  -10.1260 C   0  0  0  0  0  0  0  0  0  0  0  0
  -11.7930    0.2500  -11.1970 N   0  0  0  0  0  0  0  0  0  0  0  0
  -10.8330    0.5270  -13.8530 C   0  0  0  0  0  0  0  0  0  0  0  0
   -9.3970    0.9740  -14.1940 C   0  0  0  0  0  0  0  0  0  0  0  0
   -7.1070    1.9830  -15.3610 N   0  0  0  0  0  0  0  0  0  0  0  0
   -5.9420    2.3530  -15.9800 C   0  0  0  0  0  0  0  0  0  0  0  0
   -5.7790    3.3130  -16.8320 N   0  0  0  0  0  0  0  0  0  0  0  0
   -6.9130    3.9670  -17.1190 N   0  0  0  0  0  0  0  0  0  0  0  0
   -7.0250    5.0020  -18.0060 C   0  0  0  0  0  0  0  0  0  0  0  0
   -9.3110    7.7020  -18.5090 C   0  0  0  0  0  0  0  0  0  0  0  0
   -9.8180    8.4200  -19.5160 N   0  0  0  0  0  0  0  0  0  0  0  0
  -11.0552    8.7406  -21.7143 H   0  0  0  0  0  0  0  0  0  0  0  0
   -9.4221    8.4688  -22.4111 H   0  0  0  0  0  0  0  0  0  0  0  0
  -10.6311    7.1402  -22.4111 H   0  0  0  0  0  0  0  0  0  0  0  0
   -9.1047    5.4981  -20.9277 H   0  0  0  0  0  0  0  0  0  0  0  0
  -10.1464    4.5231  -17.0053 H   0  0  0  0  0  0  0  0  0  0  0  0
   -9.9583    4.2275  -14.5270 H   0  0  0  0  0  0  0  0  0  0  0  0
  -11.2124    3.1547  -15.3001 H   0  0  0  0  0  0  0  0  0  0  0  0
  -10.2609    3.0430  -12.3960 H   0  0  0  0  0  0  0  0  0  0  0  0
  -11.8575    3.6343  -12.9999 H   0  0  0  0  0  0  0  0  0  0  0  0
  -15.1208    1.9156  -10.4825 H   0  0  0  0  0  0  0  0  0  0  0  0
  -15.6910    1.2743   -7.2190 H   0  0  0  0  0  0  0  0  0  0  0  0
  -15.2048    2.0764   -8.7509 H   0  0  0  0  0  0  0  0  0  0  0  0
  -16.5393    0.8740   -8.7509 H   0  0  0  0  0  0  0  0  0  0  0  0
  -16.2850   -0.9030   -9.1620 H   0  0  0  0  0  0  0  0  0  0  0  0
  -15.5450   -1.6720   -7.9430 H   0  0  0  0  0  0  0  0  0  0  0  0
  -13.0866    1.7767   -7.0700 H   0  0  0  0  0  0  0  0  0  0  0  0
  -11.5840    1.3316   -5.1365 H   0  0  0  0  0  0  0  0  0  0  0  0
  -12.4176   -2.8882   -5.4514 H   0  0  0  0  0  0  0  0  0  0  0  0
  -13.9298   -2.4605   -7.3824 H   0  0  0  0  0  0  0  0  0  0  0  0
  -12.1247   -0.8886   -9.4619 H   0  0  0  0  0  0  0  0  0  0  0  0
  -10.7865   -0.3801  -13.2325 H   0  0  0  0  0  0  0  0  0  0  0  0
  -11.3651    0.3317  -14.7957 H   0  0  0  0  0  0  0  0  0  0  0  0
   -8.8323    1.0938  -13.2576 H   0  0  0  0  0  0  0  0  0  0  0  0
   -8.9492    0.2029  -14.8382 H   0  0  0  0  0  0  0  0  0  0  0  0
   -5.0456    1.7690  -15.7242 H   0  0  0  0  0  0  0  0  0  0  0  0
   -6.1989    5.4654  -18.5653 H   0  0  0  0  0  0  0  0  0  0  0  0
   -9.1984    8.0820  -17.4829 H   0  0  0  0  0  0  0  0  0  0  0  0
  1  2  1  0
  2  3  1  0
  3  4  2  0
  4  5  1  0
  5  6  1  0
  6  7  2  0
  7  8  1  0
  8  9  1  0
  9 10  1  0
 10 11  1  0
 11 12  1  0
 12 13  1  0
 13 14  2  0
 14 15  1  0
 15 16  2  0
 16 17  1  0
 17 18  1  0
 17 19  1  6
 17 20  1  0
 20 21  1  0
 21 22  2  0
 22 23  1  0
 23 24  1  0
 23 25  2  0
 25 26  1  0
 16 27  1  0
 27 28  2  0
 12 29  1  0
 29 30  1  0
  8 31  2  0
 31 32  1  0
 32 33  2  0
 33 34  1  0
 34 35  1  0
  4 36  1  0
 36 37  2  0
 37  2  1  0
 35  5  2  0
 34  7  1  0
 30  9  1  0
 28 13  1  0
 26 20  2  0
  1 38  1  0
  1 39  1  0
  1 40  1  0
  3 41  1  0
  6 42  1  0
 10 43  1  0
 10 44  1  0
 11 45  1  0
 11 46  1  0
 15 47  1  0
 18 48  1  0
 18 49  1  0
 18 50  1  0
 19 51  1  0
 19 52  1  0
 21 53  1  0
 22 54  1  0
 25 55  1  0
 26 56  1  0
 27 57  1  0
 29 58  1  0
 29 59  1  0
 30 60  1  0
 30 61  1  0
 32 62  1  0
 35 63  1  0
 36 64  1  0
M  END
>  <meeko>  (5) 
{"is_sidechain": false}

>  <vina_affinity_kcal_mol>  (5) 
-9.544

>  <pose_rank>  (5) 
5

$$$$

     RDKit          3D

 64 69  0  0  0  0  0  0  0  0999 V2000
  -10.0180    7.7640  -21.6310 C   0  0  0  0  0  0  0  0  0  0  0  0
   -9.9400    7.5150  -20.2130 N   0  0  0  0  0  0  0  0  0  0  0  0
  -10.3900    6.4120  -19.5480 C   0  0  0  0  0  0  0  0  0  0  0  0
  -10.0980    6.6250  -18.2200 C   0  0  0  0  0  0  0  0  0  0  0  0
  -10.3680    5.7550  -17.0860 C   0  0  0  0  0  0  0  0  0  0  0  0
   -9.5160    4.7260  -16.6080 C   0  0  0  0  0  0  0  0  0  0  0  0
  -10.1490    4.1320  -15.5310 C   0  0  0  0  0  0  0  0  0  0  0  0
   -9.8160    3.0610  -14.6310 C   0  0  0  0  0  0  0  0  0  0  0  0
   -8.6910    2.2530  -14.7370 N   0  0  0  0  0  0  0  0  0  0  0  0
   -8.1180    1.8730  -16.0410 C   0  0  0  0  0  0  0  0  0  0  0  0
   -7.5980    0.4200  -16.0690 C   0  0  0  0  0  0  0  0  0  0  0  0
   -6.6270    0.1930  -15.0000 N   0  0  0  0  0  0  0  0  0  0  0  0
   -5.9640   -1.0160  -14.9860 C   0  0  0  0  0  0  0  0  0  0  0  0
   -4.7420   -1.0790  -14.4330 N   0  0  0  0  0  0  0  0  0  0  0  0
   -4.1210   -2.2780  -14.4040 C   0  0  0  0  0  0  0  0  0  0  0  0
   -4.6650   -3.4490  -14.8840 C   0  0  0  0  0  0  0  0  0  0  0  0
   -3.9500   -4.7930  -14.8670 C   0  0  1  0  0  0  0  0  0  0  0  0
   -4.1700   -5.4210  -16.2640 C   0  0  0  0  0  0  0  0  0  0  0  0
   -2.4860   -4.6320  -14.7410 N   0  0  0  0  0  0  0  0  0  0  0  0
   -4.4130   -5.6900  -13.6960 C   0  0  0  0  0  0  0  0  0  0  0  0
   -4.3900   -7.0970  -13.8430 C   0  0  0  0  0  0  0  0  0  0  0  0
   -4.8100   -7.9410  -12.8130 C   0  0  0  0  0  0  0  0  0  0  0  0
   -5.2650   -7.3920  -11.6230 C   0  0  0  0  0  0  0  0  0  0  0  0
   -5.6700   -8.2000  -10.6350 F   0  0  0  0  0  0  0  0  0  0  0  0
   -5.3080   -6.0170  -11.4470 C   0  0  0  0  0  0  0  0  0  0  0  0
   -4.8860   -5.1690  -12.4760 C   0  0  0  0  0  0  0  0  0  0  0  0
   -5.9140   -3.2740  -15.4460 C   0  0  0  0  0  0  0  0  0  0  0  0
   -6.5690   -2.0950  -15.5020 N   0  0  0  0  0  0  0  0  0  0  0  0
   -6.8460    0.8860  -13.7270 C   0  0  0  0  0  0  0  0  0  0  0  0
   -8.2960    1.3960  -13.6000 C   0  0  0  0  0  0  0  0  0  0  0  0
  -10.6390    2.8560  -13.6390 N   0  0  0  0  0  0  0  0  0  0  0  0
  -11.7780    3.6110  -13.5240 C   0  0  0  0  0  0  0  0  0  0  0  0
  -12.1700    4.5610  -14.3110 N   0  0  0  0  0  0  0  0  0  0  0  0
  -11.3180    4.8040  -15.3160 N   0  0  0  0  0  0  0  0  0  0  0  0
  -11.4770    5.7710  -16.2700 C   0  0  0  0  0  0  0  0  0  0  0  0
   -9.4720    7.8880  -18.1920 C   0  0  0  0  0  0  0  0  0  0  0  0
   -9.3720    8.4340  -19.4080 N   0  0  0  0  0  0  0  0  0  0  0  0
  -10.3427    8.8007  -21.8039 H   0  0  0  0  0  0  0  0  0  0  0  0
   -9.0283    7.6091  -22.0855 H   0  0  0  0  0  0  0  0  0  0  0  0
  -10.7425    7.0722  -22.0855 H   0  0  0  0  0  0  0  0  0  0  0  0
  -10.8852    5.5320  -19.9842 H   0  0  0  0  0  0  0  0  0  0  0  0
   -8.5331    4.4512  -17.0183 H   0  0  0  0  0  0  0  0  0  0  0  0
   -8.8957    1.9822  -16.8112 H   0  0  0  0  0  0  0  0  0  0  0  0
   -7.2593    2.5342  -16.2291 H   0  0  0  0  0  0  0  0  0  0  0  0
   -8.4457   -0.2685  -15.9378 H   0  0  0  0  0  0  0  0  0  0  0  0
   -7.1046    0.2418  -17.0358 H   0  0  0  0  0  0  0  0  0  0  0  0
   -3.1123   -2.3225  -13.9674 H   0  0  0  0  0  0  0  0  0  0  0  0
   -4.5317   -6.4535  -16.1490 H   0  0  0  0  0  0  0  0  0  0  0  0
   -4.9150   -4.8310  -16.8180 H   0  0  0  0  0  0  0  0  0  0  0  0
   -3.2197   -5.4249  -16.8180 H   0  0  0  0  0  0  0  0  0  0  0  0
   -2.0930   -4.4910  -15.6710 H   0  0  0  0  0  0  0  0  0  0  0  0
   -2.0810   -5.5070  -14.4110 H   0  0  0  0  0  0  0  0  0  0  0  0
   -4.0342   -7.5346  -14.7874 H   0  0  0  0  0  0  0  0  0  0  0  0
   -4.7803   -9.0328  -12.9441 H   0  0  0  0  0  0  0  0  0  0  0  0
   -5.6734   -5.5941  -10.4996 H   0  0  0  0  0  0  0  0  0  0  0  0
   -4.9241   -4.0793  -12.3304 H   0  0  0  0  0  0  0  0  0  0  0  0
   -6.4094   -4.1561  -15.8778 H   0  0  0  0  0  0  0  0  0  0  0  0
   -6.6390    0.1894  -12.9012 H   0  0  0  0  0  0  0  0  0  0  0  0
   -6.1714    1.7540  -13.6874 H   0  0  0  0  0  0  0  0  0  0  0  0
   -8.9731    0.5301  -13.5578 H   0  0  0  0  0  0  0  0  0  0  0  0
   -8.3605    2.0016  -12.6840 H   0  0  0  0  0  0  0  0  0  0  0  0
  -12.4308    3.3842  -12.6682 H   0  0  0  0  0  0  0  0  0  0  0  0
  -12.3410    6.4447  -16.3684 H   0  0  0  0  0  0  0  0  0  0  0  0
   -9.1070    8.3698  -17.2730 H   0  0  0  0  0  0  0  0  0  0  0  0
  1  2  1  0
  2  3  1  0
  3  4  2  0
  4  5  1  0
  5  6  1  0
  6  7  2  0
  7  8  1  0
  8  9  1  0
  9 10  1  0
 10 11  1  0
 11 12  1  0
 12 13  1  0
 13 14  2  0
 14 15  1  0
 15 16  2  0
 16 17  1  0
 17 18  1  0
 17 19  1  1
 17 20  1  0
 20 21  1  0
 21 22  2  0
 22 23  1  0
 23 24  1  0
 23 25  2  0
 25 26  1  0
 16 27  1  0
 27 28  2  0
 12 29  1  0
 29 30  1  0
  8 31  2  0
 31 32  1  0
 32 33  2  0
 33 34  1  0
 34 35  1  0
  4 36  1  0
 36 37  2  0
 37  2  1  0
 35  5  2  0
 34  7  1  0
 30  9  1  0
 28 13  1  0
 26 20  2  0
  1 38  1  0
  1 39  1  0
  1 40  1  0
  3 41  1  0
  6 42  1  0
 10 43  1  0
 10 44  1  0
 11 45  1  0
 11 46  1  0
 15 47  1  0
 18 48  1  0
 18 49  1  0
 18 50  1  0
 19 51  1  0
 19 52  1  0
 21 53  1  0
 22 54  1  0
 25 55  1  0
 26 56  1  0
 27 57  1  0
 29 58  1  0
 29 59  1  0
 30 60  1  0
 30 61  1  0
 32 62  1  0
 35 63  1  0
 36 64  1  0
M  END
>  <meeko>  (6) 
{"is_sidechain": false}

>  <vina_affinity_kcal_mol>  (6) 
-9.321

>  <pose_rank>  (6) 
6

$$$$

     RDKit          3D

 64 69  0  0  0  0  0  0  0  0999 V2000
   -4.3180   -8.0620  -18.5290 C   0  0  0  0  0  0  0  0  0  0  0  0
   -4.0220   -6.8950  -17.7340 N   0  0  0  0  0  0  0  0  0  0  0  0
   -4.7300   -6.4300  -16.6650 C   0  0  0  0  0  0  0  0  0  0  0  0
   -4.0700   -5.3010  -16.2360 C   0  0  0  0  0  0  0  0  0  0  0  0
   -4.4110   -4.4240  -15.1270 C   0  0  0  0  0  0  0  0  0  0  0  0
   -5.3540   -3.3650  -15.1650 C   0  0  0  0  0  0  0  0  0  0  0  0
   -5.3640   -2.7750  -13.9140 C   0  0  0  0  0  0  0  0  0  0  0  0
   -6.0880   -1.6830  -13.3200 C   0  0  0  0  0  0  0  0  0  0  0  0
   -6.9630   -0.8450  -13.9990 N   0  0  0  0  0  0  0  0  0  0  0  0
   -6.7530   -0.4670  -15.4090 C   0  0  0  0  0  0  0  0  0  0  0  0
   -7.1350    1.0000  -15.7010 C   0  0  0  0  0  0  0  0  0  0  0  0
   -8.5160    1.2680  -15.3020 N   0  0  0  0  0  0  0  0  0  0  0  0
   -9.0490    2.4960  -15.6350 C   0  0  0  0  0  0  0  0  0  0  0  0
   -8.4200    3.2470  -16.5520 N   0  0  0  0  0  0  0  0  0  0  0  0
   -8.9730    4.4340  -16.8850 C   0  0  0  0  0  0  0  0  0  0  0  0
  -10.1530    4.9180  -16.3640 C   0  0  0  0  0  0  0  0  0  0  0  0
  -10.7580    6.2660  -16.7290 C   0  0  1  0  0  0  0  0  0  0  0  0
  -12.2850    6.1290  -16.5170 C   0  0  0  0  0  0  0  0  0  0  0  0
  -10.3310    7.3280  -15.7950 N   0  0  0  0  0  0  0  0  0  0  0  0
  -10.3610    6.7220  -18.1510 C   0  0  0  0  0  0  0  0  0  0  0  0
   -9.5800    7.8900  -18.3190 C   0  0  0  0  0  0  0  0  0  0  0  0
   -9.2090    8.3410  -19.5870 C   0  0  0  0  0  0  0  0  0  0  0  0
   -9.6190    7.6350  -20.7090 C   0  0  0  0  0  0  0  0  0  0  0  0
   -9.2660    8.0660  -21.9260 F   0  0  0  0  0  0  0  0  0  0  0  0
  -10.3910    6.4900  -20.5830 C   0  0  0  0  0  0  0  0  0  0  0  0
  -10.7620    6.0350  -19.3140 C   0  0  0  0  0  0  0  0  0  0  0  0
  -10.7100    4.0790  -15.4200 C   0  0  0  0  0  0  0  0  0  0  0  0
  -10.1900    2.8880  -15.0520 N   0  0  0  0  0  0  0  0  0  0  0  0
   -9.0200    0.5860  -14.1060 C   0  0  0  0  0  0  0  0  0  0  0  0
   -7.8700    0.0370  -13.2370 C   0  0  0  0  0  0  0  0  0  0  0  0
   -5.9030   -1.4880  -12.0430 N   0  0  0  0  0  0  0  0  0  0  0  0
   -5.0200   -2.2730  -11.3490 C   0  0  0  0  0  0  0  0  0  0  0  0
   -4.3020   -3.2440  -11.8150 N   0  0  0  0  0  0  0  0  0  0  0  0
   -4.5040   -3.4760  -13.1190 N   0  0  0  0  0  0  0  0  0  0  0  0
   -3.8970   -4.4600  -13.8490 C   0  0  0  0  0  0  0  0  0  0  0  0
   -2.9760   -5.1740  -17.1150 C   0  0  0  0  0  0  0  0  0  0  0  0
   -2.9410   -6.1480  -18.0300 N   0  0  0  0  0  0  0  0  0  0  0  0
   -4.5337   -8.9125  -17.8656 H   0  0  0  0  0  0  0  0  0  0  0  0
   -5.1936   -7.8608  -19.1638 H   0  0  0  0  0  0  0  0  0  0  0  0
   -3.4524   -8.3024  -19.1638 H   0  0  0  0  0  0  0  0  0  0  0  0
   -5.6423   -6.8679  -16.2337 H   0  0  0  0  0  0  0  0  0  0  0  0
   -5.9649   -3.0677  -16.0301 H   0  0  0  0  0  0  0  0  0  0  0  0
   -5.6905   -0.6088  -15.6559 H   0  0  0  0  0  0  0  0  0  0  0  0
   -7.4047   -1.1062  -16.0227 H   0  0  0  0  0  0  0  0  0  0  0  0
   -6.4623    1.6659  -15.1405 H   0  0  0  0  0  0  0  0  0  0  0  0
   -7.0399    1.1798  -16.7820 H   0  0  0  0  0  0  0  0  0  0  0  0
   -8.4450    5.0564  -17.6224 H   0  0  0  0  0  0  0  0  0  0  0  0
  -12.5053    6.1092  -15.4395 H   0  0  0  0  0  0  0  0  0  0  0  0
  -12.7978    6.9847  -16.9804 H   0  0  0  0  0  0  0  0  0  0  0  0
  -12.6372    5.1956  -16.9804 H   0  0  0  0  0  0  0  0  0  0  0  0
  -11.0430    8.0590  -15.7870 H   0  0  0  0  0  0  0  0  0  0  0  0
   -9.4920    7.7770  -16.1610 H   0  0  0  0  0  0  0  0  0  0  0  0
   -9.2583    8.4547  -17.4315 H   0  0  0  0  0  0  0  0  0  0  0  0
   -8.5968    9.2484  -19.6958 H   0  0  0  0  0  0  0  0  0  0  0  0
  -10.7112    5.9403  -21.4804 H   0  0  0  0  0  0  0  0  0  0  0  0
  -11.3762    5.1271  -19.2222 H   0  0  0  0  0  0  0  0  0  0  0  0
  -11.6420    4.4028  -14.9337 H   0  0  0  0  0  0  0  0  0  0  0  0
   -9.6084    1.2991  -13.5100 H   0  0  0  0  0  0  0  0  0  0  0  0
   -9.6408   -0.2623  -14.4301 H   0  0  0  0  0  0  0  0  0  0  0  0
   -7.2901    0.8840  -12.8416 H   0  0  0  0  0  0  0  0  0  0  0  0
   -8.3156   -0.5583  -12.4264 H   0  0  0  0  0  0  0  0  0  0  0  0
   -4.9090   -2.0537  -10.2768 H   0  0  0  0  0  0  0  0  0  0  0  0
   -3.1316   -5.1587  -13.4803 H   0  0  0  0  0  0  0  0  0  0  0  0
   -2.2340   -4.3642  -17.0550 H   0  0  0  0  0  0  0  0  0  0  0  0
  1  2  1  0
  2  3  1  0
  3  4  2  0
  4  5  1  0
  5  6  1  0
  6  7  2  0
  7  8  1  0
  8  9  1  0
  9 10  1  0
 10 11  1  0
 11 12  1  0
 12 13  1  0
 13 14  2  0
 14 15  1  0
 15 16  2  0
 16 17  1  0
 17 18  1  0
 17 19  1  1
 17 20  1  0
 20 21  1  0
 21 22  2  0
 22 23  1  0
 23 24  1  0
 23 25  2  0
 25 26  1  0
 16 27  1  0
 27 28  2  0
 12 29  1  0
 29 30  1  0
  8 31  2  0
 31 32  1  0
 32 33  2  0
 33 34  1  0
 34 35  1  0
  4 36  1  0
 36 37  2  0
 37  2  1  0
 35  5  2  0
 34  7  1  0
 30  9  1  0
 28 13  1  0
 26 20  2  0
  1 38  1  0
  1 39  1  0
  1 40  1  0
  3 41  1  0
  6 42  1  0
 10 43  1  0
 10 44  1  0
 11 45  1  0
 11 46  1  0
 15 47  1  0
 18 48  1  0
 18 49  1  0
 18 50  1  0
 19 51  1  0
 19 52  1  0
 21 53  1  0
 22 54  1  0
 25 55  1  0
 26 56  1  0
 27 57  1  0
 29 58  1  0
 29 59  1  0
 30 60  1  0
 30 61  1  0
 32 62  1  0
 35 63  1  0
 36 64  1  0
M  END
>  <meeko>  (7) 
{"is_sidechain": false}

>  <vina_affinity_kcal_mol>  (7) 
-9.071

>  <pose_rank>  (7) 
7

$$$$

     RDKit          3D

 64 69  0  0  0  0  0  0  0  0999 V2000
   -4.7630    2.3460  -16.5790 C   0  0  0  0  0  0  0  0  0  0  0  0
   -6.1260    2.7790  -16.3910 N   0  0  0  0  0  0  0  0  0  0  0  0
   -7.0020    2.3390  -15.4430 C   0  0  0  0  0  0  0  0  0  0  0  0
   -8.1710    3.0340  -15.6560 C   0  0  0  0  0  0  0  0  0  0  0  0
   -9.4220    2.9410  -14.9200 C   0  0  0  0  0  0  0  0  0  0  0  0
   -9.7010    2.0340  -13.8650 C   0  0  0  0  0  0  0  0  0  0  0  0
  -11.0010    2.2650  -13.4540 C   0  0  0  0  0  0  0  0  0  0  0  0
  -11.8560    1.6950  -12.4470 C   0  0  0  0  0  0  0  0  0  0  0  0
  -11.5300    0.6040  -11.6510 N   0  0  0  0  0  0  0  0  0  0  0  0
  -10.6980   -0.5070  -12.1450 C   0  0  0  0  0  0  0  0  0  0  0  0
  -11.1660   -1.8840  -11.6280 C   0  0  0  0  0  0  0  0  0  0  0  0
  -11.2220   -1.9010  -10.1670 N   0  0  0  0  0  0  0  0  0  0  0  0
  -11.4820   -3.1080   -9.5520 C   0  0  0  0  0  0  0  0  0  0  0  0
  -11.1680   -3.2550   -8.2550 N   0  0  0  0  0  0  0  0  0  0  0  0
  -11.4560   -4.4340   -7.6640 C   0  0  0  0  0  0  0  0  0  0  0  0
  -12.0730   -5.4920   -8.2950 C   0  0  0  0  0  0  0  0  0  0  0  0
  -12.3750   -6.8260   -7.6260 C   0  0  1  0  0  0  0  0  0  0  0  0
  -11.8950   -7.9230   -8.6080 C   0  0  0  0  0  0  0  0  0  0  0  0
  -11.5690   -7.0210   -6.4030 N   0  0  0  0  0  0  0  0  0  0  0  0
  -13.8610   -6.9560   -7.2190 C   0  0  0  0  0  0  0  0  0  0  0  0
  -14.5780   -5.8050   -6.8160 C   0  0  0  0  0  0  0  0  0  0  0  0
  -15.9180   -5.8820   -6.4310 C   0  0  0  0  0  0  0  0  0  0  0  0
  -16.5600   -7.1110   -6.4370 C   0  0  0  0  0  0  0  0  0  0  0  0
  -17.8450   -7.1880   -6.0660 F   0  0  0  0  0  0  0  0  0  0  0  0
  -15.8860   -8.2610   -6.8200 C   0  0  0  0  0  0  0  0  0  0  0  0
  -14.5450   -8.1870   -7.2080 C   0  0  0  0  0  0  0  0  0  0  0  0
  -12.3390   -5.2460   -9.6270 C   0  0  0  0  0  0  0  0  0  0  0  0
  -12.0630   -4.0860  -10.2600 N   0  0  0  0  0  0  0  0  0  0  0  0
  -11.6350   -0.6670   -9.4910 C   0  0  0  0  0  0  0  0  0  0  0  0
  -12.3480    0.3000  -10.4590 C   0  0  0  0  0  0  0  0  0  0  0  0
  -13.0150    2.2680  -12.2760 N   0  0  0  0  0  0  0  0  0  0  0  0
  -13.3840    3.3240  -13.0680 C   0  0  0  0  0  0  0  0  0  0  0  0
  -12.6940    3.8670  -14.0190 N   0  0  0  0  0  0  0  0  0  0  0  0
  -11.4870    3.3090  -14.1850 N   0  0  0  0  0  0  0  0  0  0  0  0
  -10.5510    3.7100  -15.0990 C   0  0  0  0  0  0  0  0  0  0  0  0
   -7.8930    3.8670  -16.7580 C   0  0  0  0  0  0  0  0  0  0  0  0
   -6.6430    3.7160  -17.2080 N   0  0  0  0  0  0  0  0  0  0  0  0
   -4.2877    2.1950  -15.5985 H   0  0  0  0  0  0  0  0  0  0  0  0
   -4.7529    1.4004  -17.1409 H   0  0  0  0  0  0  0  0  0  0  0  0
   -4.2090    3.1124  -17.1409 H   0  0  0  0  0  0  0  0  0  0  0  0
   -6.8130    1.5830  -14.6666 H   0  0  0  0  0  0  0  0  0  0  0  0
   -9.0103    1.2850  -13.4504 H   0  0  0  0  0  0  0  0  0  0  0  0
  -10.7372   -0.5130  -13.2443 H   0  0  0  0  0  0  0  0  0  0  0  0
   -9.6757   -0.3447  -11.7727 H   0  0  0  0  0  0  0  0  0  0  0  0
  -12.1675   -2.0980  -12.0294 H   0  0  0  0  0  0  0  0  0  0  0  0
  -10.4475   -2.6474  -11.9612 H   0  0  0  0  0  0  0  0  0  0  0  0
  -11.1792   -4.5585   -6.6067 H   0  0  0  0  0  0  0  0  0  0  0  0
  -11.5177   -8.7852   -8.0386 H   0  0  0  0  0  0  0  0  0  0  0  0
  -12.7360   -8.2415   -9.2415 H   0  0  0  0  0  0  0  0  0  0  0  0
  -11.0903   -7.5215   -9.2415 H   0  0  0  0  0  0  0  0  0  0  0  0
  -12.0190   -7.7320   -5.8270 H   0  0  0  0  0  0  0  0  0  0  0  0
  -11.5980   -6.1680   -5.8450 H   0  0  0  0  0  0  0  0  0  0  0  0
  -14.0696   -4.8296   -6.8057 H   0  0  0  0  0  0  0  0  0  0  0  0
  -16.4600   -4.9749   -6.1254 H   0  0  0  0  0  0  0  0  0  0  0  0
  -16.4060   -9.2303   -6.8185 H   0  0  0  0  0  0  0  0  0  0  0  0
  -14.0164   -9.1035   -7.5091 H   0  0  0  0  0  0  0  0  0  0  0  0
  -12.8080   -6.0503  -10.2128 H   0  0  0  0  0  0  0  0  0  0  0  0
  -12.3222   -0.9222   -8.6709 H   0  0  0  0  0  0  0  0  0  0  0  0
  -10.7336   -0.1669   -9.1072 H   0  0  0  0  0  0  0  0  0  0  0  0
  -13.2926   -0.1592  -10.7859 H   0  0  0  0  0  0  0  0  0  0  0  0
  -12.5249    1.2438   -9.9224 H   0  0  0  0  0  0  0  0  0  0  0  0
  -14.3760    3.7579  -12.8740 H   0  0  0  0  0  0  0  0  0  0  0  0
  -10.6778    4.5072  -15.8462 H   0  0  0  0  0  0  0  0  0  0  0  0
   -8.6221    4.5630  -17.1984 H   0  0  0  0  0  0  0  0  0  0  0  0
  1  2  1  0
  2  3  1  0
  3  4  2  0
  4  5  1  0
  5  6  1  0
  6  7  2  0
  7  8  1  0
  8  9  1  0
  9 10  1  0
 10 11  1  0
 11 12  1  0
 12 13  1  0
 13 14  2  0
 14 15  1  0
 15 16  2  0
 16 17  1  0
 17 18  1  0
 17 19  1  1
 17 20  1  0
 20 21  1  0
 21 22  2  0
 22 23  1  0
 23 24  1  0
 23 25  2  0
 25 26  1  0
 16 27  1  0
 27 28  2  0
 12 29  1  0
 29 30  1  0
  8 31  2  0
 31 32  1  0
 32 33  2  0
 33 34  1  0
 34 35  1  0
  4 36  1  0
 36 37  2  0
 37  2  1  0
 35  5  2  0
 34  7  1  0
 30  9  1  0
 28 13  1  0
 26 20  2  0
  1 38  1  0
  1 39  1  0
  1 40  1  0
  3 41  1  0
  6 42  1  0
 10 43  1  0
 10 44  1  0
 11 45  1  0
 11 46  1  0
 15 47  1  0
 18 48  1  0
 18 49  1  0
 18 50  1  0
 19 51  1  0
 19 52  1  0
 21 53  1  0
 22 54  1  0
 25 55  1  0
 26 56  1  0
 27 57  1  0
 29 58  1  0
 29 59  1  0
 30 60  1  0
 30 61  1  0
 32 62  1  0
 35 63  1  0
 36 64  1  0
M  END
>  <meeko>  (8) 
{"is_sidechain": false}

>  <vina_affinity_kcal_mol>  (8) 
-9.038

>  <pose_rank>  (8) 
8

$$$$

     RDKit          3D

 64 69  0  0  0  0  0  0  0  0999 V2000
   -9.9510    8.7060  -20.4310 C   0  0  0  0  0  0  0  0  0  0  0  0
   -9.5400    7.8400  -19.3530 N   0  0  0  0  0  0  0  0  0  0  0  0
   -8.9910    6.5960  -19.4640 C   0  0  0  0  0  0  0  0  0  0  0  0
   -8.7690    6.1640  -18.1760 C   0  0  0  0  0  0  0  0  0  0  0  0
   -8.1980    4.9010  -17.7340 C   0  0  0  0  0  0  0  0  0  0  0  0
   -8.8010    3.9880  -16.8310 C   0  0  0  0  0  0  0  0  0  0  0  0
   -7.9250    2.9300  -16.6670 C   0  0  0  0  0  0  0  0  0  0  0  0
   -7.9490    1.7110  -15.9040 C   0  0  0  0  0  0  0  0  0  0  0  0
   -8.9440    1.3560  -15.0010 N   0  0  0  0  0  0  0  0  0  0  0  0
   -9.6500    2.3560  -14.1800 C   0  0  0  0  0  0  0  0  0  0  0  0
   -9.9450    1.8580  -12.7490 C   0  0  0  0  0  0  0  0  0  0  0  0
  -10.6920    0.6010  -12.7770 N   0  0  0  0  0  0  0  0  0  0  0  0
  -11.1560    0.1080  -11.5760 C   0  0  0  0  0  0  0  0  0  0  0  0
  -10.7570   -1.1110  -11.1800 N   0  0  0  0  0  0  0  0  0  0  0  0
  -11.2000   -1.5650   -9.9870 C   0  0  0  0  0  0  0  0  0  0  0  0
  -12.0170   -0.8530   -9.1360 C   0  0  0  0  0  0  0  0  0  0  0  0
  -12.5290   -1.3810   -7.8030 C   0  0  1  0  0  0  0  0  0  0  0  0
  -11.8770   -2.7710   -7.6060 C   0  0  0  0  0  0  0  0  0  0  0  0
  -12.0470   -0.5630   -6.6700 N   0  0  0  0  0  0  0  0  0  0  0  0
  -14.0720   -1.3970   -7.7320 C   0  0  0  0  0  0  0  0  0  0  0  0
  -14.7880   -2.4770   -8.3020 C   0  0  0  0  0  0  0  0  0  0  0  0
  -16.1820   -2.5230   -8.2670 C   0  0  0  0  0  0  0  0  0  0  0  0
  -16.8850   -1.4870   -7.6680 C   0  0  0  0  0  0  0  0  0  0  0  0
  -18.2230   -1.5290   -7.6350 F   0  0  0  0  0  0  0  0  0  0  0  0
  -16.2170   -0.4100   -7.1050 C   0  0  0  0  0  0  0  0  0  0  0  0
  -14.8200   -0.3620   -7.1370 C   0  0  0  0  0  0  0  0  0  0  0  0
  -12.3820    0.3780   -9.6430 C   0  0  0  0  0  0  0  0  0  0  0  0
  -11.9690    0.8690  -10.8310 N   0  0  0  0  0  0  0  0  0  0  0  0
  -10.3820   -0.3470  -13.8510 C   0  0  0  0  0  0  0  0  0  0  0  0
   -9.0230   -0.0350  -14.5100 C   0  0  0  0  0  0  0  0  0  0  0  0
   -6.9600    0.8820  -16.0990 N   0  0  0  0  0  0  0  0  0  0  0  0
   -5.9430    1.2160  -16.9560 C   0  0  0  0  0  0  0  0  0  0  0  0
   -5.8260    2.3050  -17.6450 N   0  0  0  0  0  0  0  0  0  0  0  0
   -6.8510    3.1520  -17.4790 N   0  0  0  0  0  0  0  0  0  0  0  0
   -6.9900    4.3580  -18.1100 C   0  0  0  0  0  0  0  0  0  0  0  0
   -9.2210    7.2230  -17.3640 C   0  0  0  0  0  0  0  0  0  0  0  0
   -9.6910    8.2500  -18.0790 N   0  0  0  0  0  0  0  0  0  0  0  0
  -10.3878    9.6263  -20.0159 H   0  0  0  0  0  0  0  0  0  0  0  0
   -9.0779    8.9611  -21.0496 H   0  0  0  0  0  0  0  0  0  0  0  0
  -10.7007    8.1910  -21.0496 H   0  0  0  0  0  0  0  0  0  0  0  0
   -8.7707    6.0497  -20.3930 H   0  0  0  0  0  0  0  0  0  0  0  0
   -9.7838    4.1006  -16.3500 H   0  0  0  0  0  0  0  0  0  0  0  0
   -9.0270    3.2603  -14.1155 H   0  0  0  0  0  0  0  0  0  0  0  0
  -10.6164    2.5585  -14.6649 H   0  0  0  0  0  0  0  0  0  0  0  0
   -8.9939    1.6999  -12.2196 H   0  0  0  0  0  0  0  0  0  0  0  0
  -10.5517    2.6157  -12.2315 H   0  0  0  0  0  0  0  0  0  0  0  0
  -10.8870   -2.5719   -9.6737 H   0  0  0  0  0  0  0  0  0  0  0  0
  -11.7786   -2.9808   -6.5307 H   0  0  0  0  0  0  0  0  0  0  0  0
  -12.5077   -3.5414   -8.0737 H   0  0  0  0  0  0  0  0  0  0  0  0
  -10.8814   -2.7786   -8.0737 H   0  0  0  0  0  0  0  0  0  0  0  0
  -11.0420   -0.7070   -6.5690 H   0  0  0  0  0  0  0  0  0  0  0  0
  -12.4550   -0.9190   -5.8060 H   0  0  0  0  0  0  0  0  0  0  0  0
  -14.2339   -3.2969   -8.7824 H   0  0  0  0  0  0  0  0  0  0  0  0
  -16.7198   -3.3738   -8.7107 H   0  0  0  0  0  0  0  0  0  0  0  0
  -16.7854    0.4054   -6.6339 H   0  0  0  0  0  0  0  0  0  0  0  0
  -14.2971    0.4968   -6.6909 H   0  0  0  0  0  0  0  0  0  0  0  0
  -13.0558    1.0019   -9.0374 H   0  0  0  0  0  0  0  0  0  0  0  0
  -10.3502   -1.3634  -13.4316 H   0  0  0  0  0  0  0  0  0  0  0  0
  -11.1642   -0.2631  -14.6199 H   0  0  0  0  0  0  0  0  0  0  0  0
   -8.2257   -0.1944  -13.7691 H   0  0  0  0  0  0  0  0  0  0  0  0
   -8.9071   -0.7043  -15.3752 H   0  0  0  0  0  0  0  0  0  0  0  0
   -5.1372    0.4760  -17.0705 H   0  0  0  0  0  0  0  0  0  0  0  0
   -6.2631    4.8144  -18.7980 H   0  0  0  0  0  0  0  0  0  0  0  0
   -9.1905    7.2065  -16.2645 H   0  0  0  0  0  0  0  0  0  0  0  0
  1  2  1  0
  2  3  1  0
  3  4  2  0
  4  5  1  0
  5  6  1  0
  6  7  2  0
  7  8  1  0
  8  9  1  0
  9 10  1  0
 10 11  1  0
 11 12  1  0
 12 13  1  0
 13 14  2  0
 14 15  1  0
 15 16  2  0
 16 17  1  0
 17 18  1  0
 17 19  1  1
 17 20  1  0
 20 21  1  0
 21 22  2  0
 22 23  1  0
 23 24  1  0
 23 25  2  0
 25 26  1  0
 16 27  1  0
 27 28  2  0
 12 29  1  0
 29 30  1  0
  8 31  2  0
 31 32  1  0
 32 33  2  0
 33 34  1  0
 34 35  1  0
  4 36  1  0
 36 37  2  0
 37  2  1  0
 35  5  2  0
 34  7  1  0
 30  9  1  0
 28 13  1  0
 26 20  2  0
  1 38  1  0
  1 39  1  0
  1 40  1  0
  3 41  1  0
  6 42  1  0
 10 43  1  0
 10 44  1  0
 11 45  1  0
 11 46  1  0
 15 47  1  0
 18 48  1  0
 18 49  1  0
 18 50  1  0
 19 51  1  0
 19 52  1  0
 21 53  1  0
 22 54  1  0
 25 55  1  0
 26 56  1  0
 27 57  1  0
 29 58  1  0
 29 59  1  0
 30 60  1  0
 30 61  1  0
 32 62  1  0
 35 63  1  0
 36 64  1  0
M  END
>  <meeko>  (9) 
{"is_sidechain": false}

>  <vina_affinity_kcal_mol>  (9) 
-8.846

>  <pose_rank>  (9) 
9

$$$$

     RDKit          3D

 64 69  0  0  0  0  0  0  0  0999 V2000
  -18.0450   -0.3950   -5.1240 C   0  0  0  0  0  0  0  0  0  0  0  0
  -17.1100   -0.4280   -6.2220 N   0  0  0  0  0  0  0  0  0  0  0  0
  -16.3920   -1.5040   -6.6550 C   0  0  0  0  0  0  0  0  0  0  0  0
  -15.6430   -1.0550   -7.7180 C   0  0  0  0  0  0  0  0  0  0  0  0
  -14.7040   -1.8040   -8.5400 C   0  0  0  0  0  0  0  0  0  0  0  0
  -13.6280   -1.2540   -9.2840 C   0  0  0  0  0  0  0  0  0  0  0  0
  -12.9980   -2.2990   -9.9340 C   0  0  0  0  0  0  0  0  0  0  0  0
  -11.8670   -2.4010  -10.8160 C   0  0  0  0  0  0  0  0  0  0  0  0
  -11.1510   -1.3230  -11.3220 N   0  0  0  0  0  0  0  0  0  0  0  0
  -11.7940   -0.0360  -11.6430 C   0  0  0  0  0  0  0  0  0  0  0  0
  -11.2220    0.6200  -12.9170 C   0  0  0  0  0  0  0  0  0  0  0  0
   -9.7730    0.7870  -12.8110 N   0  0  0  0  0  0  0  0  0  0  0  0
   -9.1370    1.4930  -13.8110 C   0  0  0  0  0  0  0  0  0  0  0  0
   -8.1430    2.3320  -13.4800 N   0  0  0  0  0  0  0  0  0  0  0  0
   -7.5140    2.9930  -14.4760 C   0  0  0  0  0  0  0  0  0  0  0  0
   -7.8080    2.8490  -15.8150 C   0  0  0  0  0  0  0  0  0  0  0  0
   -7.1090    3.6140  -16.9300 C   0  0  1  0  0  0  0  0  0  0  0  0
   -5.7510    4.0810  -16.3510 C   0  0  0  0  0  0  0  0  0  0  0  0
   -6.7640    2.7330  -18.0650 N   0  0  0  0  0  0  0  0  0  0  0  0
   -7.9800    4.7610  -17.4900 C   0  0  0  0  0  0  0  0  0  0  0  0
   -7.7480    5.2380  -18.8020 C   0  0  0  0  0  0  0  0  0  0  0  0
   -8.5060    6.2790  -19.3410 C   0  0  0  0  0  0  0  0  0  0  0  0
   -9.5030    6.8660  -18.5750 C   0  0  0  0  0  0  0  0  0  0  0  0
  -10.2300    7.8660  -19.0890 F   0  0  0  0  0  0  0  0  0  0  0  0
   -9.7530    6.4280  -17.2830 C   0  0  0  0  0  0  0  0  0  0  0  0
   -8.9980    5.3840  -16.7410 C   0  0  0  0  0  0  0  0  0  0  0  0
   -8.8550    1.9790  -16.0470 C   0  0  0  0  0  0  0  0  0  0  0  0
   -9.5150    1.3020  -15.0830 N   0  0  0  0  0  0  0  0  0  0  0  0
   -9.0220   -0.2520  -12.1020 C   0  0  0  0  0  0  0  0  0  0  0  0
   -9.8410   -1.5520  -11.9630 C   0  0  0  0  0  0  0  0  0  0  0  0
  -11.4920   -3.6070  -11.1450 N   0  0  0  0  0  0  0  0  0  0  0  0
  -12.1960   -4.6930  -10.6940 C   0  0  0  0  0  0  0  0  0  0  0  0
  -13.2450   -4.6850   -9.9340 N   0  0  0  0  0  0  0  0  0  0  0  0
  -13.6220   -3.4550   -9.5630 N   0  0  0  0  0  0  0  0  0  0  0  0
  -14.6780   -3.1660   -8.7410 C   0  0  0  0  0  0  0  0  0  0  0  0
  -15.9830    0.3060   -7.8430 C   0  0  0  0  0  0  0  0  0  0  0  0
  -16.8820    0.6930   -6.9320 N   0  0  0  0  0  0  0  0  0  0  0  0
  -17.4938   -0.4145   -4.1723 H   0  0  0  0  0  0  0  0  0  0  0  0
  -18.6454    0.5249   -5.1812 H   0  0  0  0  0  0  0  0  0  0  0  0
  -18.7088   -1.2703   -5.1812 H   0  0  0  0  0  0  0  0  0  0  0  0
  -16.4085   -2.5223   -6.2393 H   0  0  0  0  0  0  0  0  0  0  0  0
  -13.3469   -0.1917   -9.3343 H   0  0  0  0  0  0  0  0  0  0  0  0
  -12.8704   -0.2085  -11.7901 H   0  0  0  0  0  0  0  0  0  0  0  0
  -11.5999    0.6482  -10.8039 H   0  0  0  0  0  0  0  0  0  0  0  0
  -11.4488   -0.0181  -13.7838 H   0  0  0  0  0  0  0  0  0  0  0  0
  -11.6825    1.6114  -13.0396 H   0  0  0  0  0  0  0  0  0  0  0  0
   -6.7125    3.6940  -14.1997 H   0  0  0  0  0  0  0  0  0  0  0  0
   -5.7962    4.0655  -15.2520 H   0  0  0  0  0  0  0  0  0  0  0  0
   -4.9540    3.4053  -16.6948 H   0  0  0  0  0  0  0  0  0  0  0  0
   -5.5381    5.1040  -16.6948 H   0  0  0  0  0  0  0  0  0  0  0  0
   -7.6090    2.5590  -18.6100 H   0  0  0  0  0  0  0  0  0  0  0  0
   -6.4860    1.8210  -17.7060 H   0  0  0  0  0  0  0  0  0  0  0  0
   -6.9541    4.7791  -19.4095 H   0  0  0  0  0  0  0  0  0  0  0  0
   -8.3143    6.6313  -20.3653 H   0  0  0  0  0  0  0  0  0  0  0  0
  -10.5452    6.9021  -16.6850 H   0  0  0  0  0  0  0  0  0  0  0  0
   -9.2015    5.0438  -15.7149 H   0  0  0  0  0  0  0  0  0  0  0  0
   -9.1733    1.8270  -17.0889 H   0  0  0  0  0  0  0  0  0  0  0  0
   -8.0997   -0.4695  -12.6606 H   0  0  0  0  0  0  0  0  0  0  0  0
   -8.7924    0.1189  -11.0922 H   0  0  0  0  0  0  0  0  0  0  0  0
  -10.0065   -1.9747  -12.9650 H   0  0  0  0  0  0  0  0  0  0  0  0
   -9.2703   -2.2427  -11.3249 H   0  0  0  0  0  0  0  0  0  0  0  0
  -11.8299   -5.6802  -11.0125 H   0  0  0  0  0  0  0  0  0  0  0  0
  -15.3831   -3.8950   -8.3152 H   0  0  0  0  0  0  0  0  0  0  0  0
  -15.5568    0.9755   -8.6046 H   0  0  0  0  0  0  0  0  0  0  0  0
  1  2  1  0
  2  3  1  0
  3  4  2  0
  4  5  1  0
  5  6  1  0
  6  7  2  0
  7  8  1  0
  8  9  1  0
  9 10  1  0
 10 11  1  0
 11 12  1  0
 12 13  1  0
 13 14  2  0
 14 15  1  0
 15 16  2  0
 16 17  1  0
 17 18  1  0
 17 19  1  6
 17 20  1  0
 20 21  1  0
 21 22  2  0
 22 23  1  0
 23 24  1  0
 23 25  2  0
 25 26  1  0
 16 27  1  0
 27 28  2  0
 12 29  1  0
 29 30  1  0
  8 31  2  0
 31 32  1  0
 32 33  2  0
 33 34  1  0
 34 35  1  0
  4 36  1  0
 36 37  2  0
 37  2  1  0
 35  5  2  0
 34  7  1  0
 30  9  1  0
 28 13  1  0
 26 20  2  0
  1 38  1  0
  1 39  1  0
  1 40  1  0
  3 41  1  0
  6 42  1  0
 10 43  1  0
 10 44  1  0
 11 45  1  0
 11 46  1  0
 15 47  1  0
 18 48  1  0
 18 49  1  0
 18 50  1  0
 19 51  1  0
 19 52  1  0
 21 53  1  0
 22 54  1  0
 25 55  1  0
 26 56  1  0
 27 57  1  0
 29 58  1  0
 29 59  1  0
 30 60  1  0
 30 61  1  0
 32 62  1  0
 35 63  1  0
 36 64  1  0
M  END
>  <meeko>  (10) 
{"is_sidechain": false}

>  <vina_affinity_kcal_mol>  (10) 
-8.553

>  <pose_rank>  (10) 
10

$$$$
