
     RDKit          3D

 66 70  0  0  0  0  0  0  0  0999 V2000
   -7.1580    2.2230  -17.9760 C   0  0  0  0  0  0  0  0  0  0  0  0
   -8.0230    1.7750  -16.8280 C   0  0  0  0  0  0  0  0  0  0  0  0
   -7.9250    0.4530  -16.3670 C   0  0  0  0  0  0  0  0  0  0  0  0
   -8.7190    0.0100  -15.3070 C   0  0  0  0  0  0  0  0  0  0  0  0
   -9.6170    0.8840  -14.6860 C   0  0  0  0  0  0  0  0  0  0  0  0
  -10.4410    0.3740  -13.5550 C   0  0  0  0  0  0  0  0  0  0  0  0
  -10.5320   -0.8380  -13.4050 O   0  0  0  0  0  0  0  0  0  0  0  0
  -10.9940    1.3530  -12.7500 N   0  0  0  0  0  0  0  0  0  0  0  0
  -11.8460    1.1710  -11.6400 C   0  0  0  0  0  0  0  0  0  0  0  0
  -13.1800    1.5540  -11.7900 C   0  0  0  0  0  0  0  0  0  0  0  0
  -14.0890    1.3960  -10.7420 C   0  0  0  0  0  0  0  0  0  0  0  0
  -13.6880    0.8440   -9.5140 C   0  0  0  0  0  0  0  0  0  0  0  0
  -14.7240    0.6820   -8.4160 C   0  0  0  0  0  0  0  0  0  0  0  0
  -15.4700   -0.5720   -8.5310 N   0  0  0  0  0  0  0  0  0  0  0  0
  -15.7710   -1.2070   -7.2310 C   0  0  0  0  0  0  0  0  0  0  0  0
  -14.8570   -2.4050   -6.8890 C   0  0  0  0  0  0  0  0  0  0  0  0
  -14.9350   -3.4960   -7.8810 N   0  0  0  0  0  0  0  0  0  0  0  0
  -13.7320   -4.3210   -7.8430 C   0  0  0  0  0  0  0  0  0  0  0  0
  -15.2100   -2.9770   -9.2370 C   0  0  0  0  0  0  0  0  0  0  0  0
  -14.7820   -1.5080   -9.4430 C   0  0  0  0  0  0  0  0  0  0  0  0
  -12.3370    0.4640   -9.3430 C   0  0  0  0  0  0  0  0  0  0  0  0
  -11.8120   -0.1440   -8.0560 C   0  0  0  0  0  0  0  0  0  0  0  0
  -10.4820    0.1030   -7.8630 F   0  0  0  0  0  0  0  0  0  0  0  0
  -12.4120    0.3410   -6.9300 F   0  0  0  0  0  0  0  0  0  0  0  0
  -11.9310   -1.5000   -8.0090 F   0  0  0  0  0  0  0  0  0  0  0  0
  -11.4380    0.6240  -10.4220 C   0  0  0  0  0  0  0  0  0  0  0  0
   -9.7400    2.1980  -15.1530 C   0  0  0  0  0  0  0  0  0  0  0  0
   -8.9430    2.6440  -16.2160 C   0  0  0  0  0  0  0  0  0  0  0  0
   -9.1010    4.0000  -16.6550 C   0  0  0  0  0  0  0  0  0  0  0  0
   -9.2480    5.1370  -17.0100 C   0  0  0  0  0  0  0  0  0  0  0  0
   -9.4190    6.4780  -17.4420 C   0  0  0  0  0  0  0  0  0  0  0  0
   -9.4980    7.6210  -16.6800 C   0  0  0  0  0  0  0  0  0  0  0  0
   -9.6600    8.7370  -17.4650 N   0  0  0  0  0  0  0  0  0  0  0  0
   -9.6790    8.2830  -18.7000 C   0  0  0  0  0  0  0  0  0  0  0  0
   -9.8140    8.9600  -19.9340 C   0  0  0  0  0  0  0  0  0  0  0  0
   -9.8020    8.2570  -21.0730 C   0  0  0  0  0  0  0  0  0  0  0  0
   -9.6480    6.7860  -20.9590 C   0  0  0  0  0  0  0  0  0  0  0  0
   -9.5220    6.1080  -19.8630 N   0  0  0  0  0  0  0  0  0  0  0  0
   -9.5390    6.9020  -18.7450 N   0  0  0  0  0  0  0  0  0  0  0  0
   -6.2452    2.6958  -17.5846 H   0  0  0  0  0  0  0  0  0  0  0  0
   -6.8854    1.3527  -18.5911 H   0  0  0  0  0  0  0  0  0  0  0  0
   -7.7115    2.9478  -18.5911 H   0  0  0  0  0  0  0  0  0  0  0  0
   -7.2168   -0.2400  -16.8447 H   0  0  0  0  0  0  0  0  0  0  0  0
   -8.6378   -1.0304  -14.9592 H   0  0  0  0  0  0  0  0  0  0  0  0
  -10.7100    2.3070  -12.9290 H   0  0  0  0  0  0  0  0  0  0  0  0
  -13.5186    1.9848  -12.7438 H   0  0  0  0  0  0  0  0  0  0  0  0
  -15.1346    1.7084  -10.8800 H   0  0  0  0  0  0  0  0  0  0  0  0
  -14.2123    0.7002   -7.4425 H   0  0  0  0  0  0  0  0  0  0  0  0
  -15.4432    1.5090   -8.5099 H   0  0  0  0  0  0  0  0  0  0  0  0
  -15.6577   -0.4493   -6.4417 H   0  0  0  0  0  0  0  0  0  0  0  0
  -16.7966   -1.5989   -7.2986 H   0  0  0  0  0  0  0  0  0  0  0  0
  -13.8172   -2.0493   -6.8411 H   0  0  0  0  0  0  0  0  0  0  0  0
  -15.1981   -2.8128   -5.9260 H   0  0  0  0  0  0  0  0  0  0  0  0
  -13.4520   -4.5130   -6.7967 H   0  0  0  0  0  0  0  0  0  0  0  0
  -13.9265   -5.2766   -8.3518 H   0  0  0  0  0  0  0  0  0  0  0  0
  -12.9106   -3.7952   -8.3518 H   0  0  0  0  0  0  0  0  0  0  0  0
  -14.6681   -3.6008   -9.9631 H   0  0  0  0  0  0  0  0  0  0  0  0
  -16.3002   -3.0149   -9.3785 H   0  0  0  0  0  0  0  0  0  0  0  0
  -13.6982   -1.4315   -9.2712 H   0  0  0  0  0  0  0  0  0  0  0  0
  -15.0563   -1.2269  -10.4705 H   0  0  0  0  0  0  0  0  0  0  0  0
  -10.3910    0.3098  -10.2990 H   0  0  0  0  0  0  0  0  0  0  0  0
  -10.4635    2.8816  -14.6848 H   0  0  0  0  0  0  0  0  0  0  0  0
   -9.4390    7.6390  -15.5817 H   0  0  0  0  0  0  0  0  0  0  0  0
   -9.9278   10.0538  -19.9577 H   0  0  0  0  0  0  0  0  0  0  0  0
   -9.9021    8.7490  -22.0517 H   0  0  0  0  0  0  0  0  0  0  0  0
   -9.6400    6.2144  -21.8988 H   0  0  0  0  0  0  0  0  0  0  0  0
  1  2  1  0
  2  3  1  0
  3  4  2  0
  4  5  1  0
  5  6  1  0
  6  7  2  0
  6  8  1  0
  8  9  1  0
  9 10  1  0
 10 11  2  0
 11 12  1  0
 12 13  1  0
 13 14  1  0
 14 15  1  0
 15 16  1  0
 16 17  1  0
 17 18  1  0
 17 19  1  0
 19 20  1  0
 12 21  2  0
 21 22  1  0
 22 23  1  0
 22 24  1  0
 22 25  1  0
 21 26  1  0
  5 27  2  0
 27 28  1  0
 28 29  1  0
 29 30  3  0
 30 31  1  0
 31 32  2  0
 32 33  1  0
 33 34  2  0
 34 35  1  0
 35 36  2  0
 36 37  1  0
 37 38  2  0
 38 39  1  0
 28  2  2  0
 39 31  1  0
 26  9  2  0
 39 34  1  0
 20 14  1  0
  1 40  1  0
  1 41  1  0
  1 42  1  0
  3 43  1  0
  4 44  1  0
  8 45  1  0
 10 46  1  0
 11 47  1  0
 13 48  1  0
 13 49  1  0
 15 50  1  0
 15 51  1  0
 16 52  1  0
 16 53  1  0
 18 54  1  0
 18 55  1  0
 18 56  1  0
 19 57  1  0
 19 58  1  0
 20 59  1  0
 20 60  1  0
 26 61  1  0
 27 62  1  0
 32 63  1  0
 35 64  1  0
 36 65  1  0
 37 66  1  0
M  END
>  <meeko>  (1) 
{"is_sidechain": false}

>  <vina_affinity_kcal_mol>  (1) 
-10.329

>  <pose_rank>  (1) 
1

$$$$

     RDKit          3D

 66 70  0  0  0  0  0  0  0  0999 V2000
  -12.9610   -1.3800   -6.4770 C   0  0  0  0  0  0  0  0  0  0  0  0
  -12.8750   -0.6460   -7.7870 C   0  0  0  0  0  0  0  0  0  0  0  0
  -11.6190   -0.4350   -8.3780 C   0  0  0  0  0  0  0  0  0  0  0  0
  -11.5100    0.2470   -9.5920 C   0  0  0  0  0  0  0  0  0  0  0  0
  -12.6550    0.7220  -10.2380 C   0  0  0  0  0  0  0  0  0  0  0  0
  -12.4970    1.4390  -11.5340 C   0  0  0  0  0  0  0  0  0  0  0  0
  -13.4920    1.9380  -12.0460 O   0  0  0  0  0  0  0  0  0  0  0  0
  -11.1990    1.5030  -12.0090 N   0  0  0  0  0  0  0  0  0  0  0  0
  -10.7560    2.0790  -13.2190 C   0  0  0  0  0  0  0  0  0  0  0  0
  -11.3120    3.3070  -13.5810 C   0  0  0  0  0  0  0  0  0  0  0  0
  -10.9190    3.9490  -14.7560 C   0  0  0  0  0  0  0  0  0  0  0  0
   -9.9530    3.3790  -15.6030 C   0  0  0  0  0  0  0  0  0  0  0  0
   -9.5540    4.1290  -16.8610 C   0  0  0  0  0  0  0  0  0  0  0  0
  -10.1200    5.4780  -16.9110 N   0  0  0  0  0  0  0  0  0  0  0  0
  -11.1310    5.6600  -17.9740 C   0  0  0  0  0  0  0  0  0  0  0  0
  -10.6080    6.4120  -19.2180 C   0  0  0  0  0  0  0  0  0  0  0  0
  -10.1190    7.7710  -18.9110 N   0  0  0  0  0  0  0  0  0  0  0  0
   -9.1770    8.2270  -19.9280 C   0  0  0  0  0  0  0  0  0  0  0  0
   -9.5480    7.8470  -17.5510 C   0  0  0  0  0  0  0  0  0  0  0  0
   -9.0500    6.4920  -17.0040 C   0  0  0  0  0  0  0  0  0  0  0  0
   -9.3910    2.1290  -15.2560 C   0  0  0  0  0  0  0  0  0  0  0  0
   -8.3390    1.4380  -16.1040 C   0  0  0  0  0  0  0  0  0  0  0  0
   -7.9270    0.2520  -15.5640 F   0  0  0  0  0  0  0  0  0  0  0  0
   -8.7690    1.1080  -17.3570 F   0  0  0  0  0  0  0  0  0  0  0  0
   -7.2020    2.1710  -16.2590 F   0  0  0  0  0  0  0  0  0  0  0  0
   -9.7980    1.5050  -14.0540 C   0  0  0  0  0  0  0  0  0  0  0  0
  -13.9100    0.5380   -9.6470 C   0  0  0  0  0  0  0  0  0  0  0  0
  -14.0220   -0.1470   -8.4300 C   0  0  0  0  0  0  0  0  0  0  0  0
  -15.3290   -0.3150   -7.8670 C   0  0  0  0  0  0  0  0  0  0  0  0
  -16.4320   -0.4460   -7.4100 C   0  0  0  0  0  0  0  0  0  0  0  0
  -17.7370   -0.5850   -6.8710 C   0  0  0  0  0  0  0  0  0  0  0  0
  -18.2950   -1.6800   -6.2490 C   0  0  0  0  0  0  0  0  0  0  0  0
  -19.5870   -1.4280   -5.8560 N   0  0  0  0  0  0  0  0  0  0  0  0
  -19.8210   -0.1880   -6.2320 C   0  0  0  0  0  0  0  0  0  0  0  0
  -20.9730    0.6190   -6.0950 C   0  0  0  0  0  0  0  0  0  0  0  0
  -20.9570    1.8700   -6.5710 C   0  0  0  0  0  0  0  0  0  0  0  0
  -19.7080    2.3310   -7.2240 C   0  0  0  0  0  0  0  0  0  0  0  0
  -18.6220    1.6420   -7.3820 N   0  0  0  0  0  0  0  0  0  0  0  0
  -18.7200    0.3760   -6.8640 N   0  0  0  0  0  0  0  0  0  0  0  0
  -12.8769   -0.6618   -5.6481 H   0  0  0  0  0  0  0  0  0  0  0  0
  -13.9266   -1.9030   -6.4124 H   0  0  0  0  0  0  0  0  0  0  0  0
  -12.1425   -2.1120   -6.4124 H   0  0  0  0  0  0  0  0  0  0  0  0
  -10.7126   -0.8102   -7.8804 H   0  0  0  0  0  0  0  0  0  0  0  0
  -10.5195    0.4109  -10.0414 H   0  0  0  0  0  0  0  0  0  0  0  0
  -10.4710    1.1600  -11.3970 H   0  0  0  0  0  0  0  0  0  0  0  0
  -12.0683    3.7739  -12.9329 H   0  0  0  0  0  0  0  0  0  0  0  0
  -11.3718    4.9152  -15.0232 H   0  0  0  0  0  0  0  0  0  0  0  0
   -8.4571    4.2049  -16.8938 H   0  0  0  0  0  0  0  0  0  0  0  0
   -9.9459    3.5693  -17.7231 H   0  0  0  0  0  0  0  0  0  0  0  0
  -11.4807    4.6668  -18.2921 H   0  0  0  0  0  0  0  0  0  0  0  0
  -11.9354    6.2757  -17.5454 H   0  0  0  0  0  0  0  0  0  0  0  0
   -9.7811    5.8330  -19.6550 H   0  0  0  0  0  0  0  0  0  0  0  0
  -11.4516    6.5172  -19.9160 H   0  0  0  0  0  0  0  0  0  0  0  0
   -8.2898    8.6565  -19.4398 H   0  0  0  0  0  0  0  0  0  0  0  0
   -8.8743    7.3757  -20.5554 H   0  0  0  0  0  0  0  0  0  0  0  0
   -9.6569    8.9925  -20.5554 H   0  0  0  0  0  0  0  0  0  0  0  0
   -8.6986    8.5456  -17.5708 H   0  0  0  0  0  0  0  0  0  0  0  0
  -10.3560    8.1825  -16.8842 H   0  0  0  0  0  0  0  0  0  0  0  0
   -8.2640    6.1116  -17.6729 H   0  0  0  0  0  0  0  0  0  0  0  0
   -8.6735    6.6670  -15.9854 H   0  0  0  0  0  0  0  0  0  0  0  0
   -9.3474    0.5424  -13.7705 H   0  0  0  0  0  0  0  0  0  0  0  0
  -14.8112    0.9323  -10.1394 H   0  0  0  0  0  0  0  0  0  0  0  0
  -17.7727   -2.6345   -6.0875 H   0  0  0  0  0  0  0  0  0  0  0  0
  -21.8734    0.2233   -5.6024 H   0  0  0  0  0  0  0  0  0  0  0  0
  -21.8336    2.5284   -6.4815 H   0  0  0  0  0  0  0  0  0  0  0  0
  -19.7029    3.3600   -7.6129 H   0  0  0  0  0  0  0  0  0  0  0  0
  1  2  1  0
  2  3  1  0
  3  4  2  0
  4  5  1  0
  5  6  1  0
  6  7  2  0
  6  8  1  0
  8  9  1  0
  9 10  1  0
 10 11  2  0
 11 12  1  0
 12 13  1  0
 13 14  1  0
 14 15  1  0
 15 16  1  0
 16 17  1  0
 17 18  1  0
 17 19  1  0
 19 20  1  0
 12 21  2  0
 21 22  1  0
 22 23  1  0
 22 24  1  0
 22 25  1  0
 21 26  1  0
  5 27  2  0
 27 28  1  0
 28 29  1  0
 29 30  3  0
 30 31  1  0
 31 32  2  0
 32 33  1  0
 33 34  2  0
 34 35  1  0
 35 36  2  0
 36 37  1  0
 37 38  2  0
 38 39  1  0
 28  2  2  0
 39 31  1  0
 26  9  2  0
 39 34  1  0
 20 14  1  0
  1 40  1  0
  1 41  1  0
  1 42  1  0
  3 43  1  0
  4 44  1  0
  8 45  1  0
 10 46  1  0
 11 47  1  0
 13 48  1  0
 13 49  1  0
 15 50  1  0
 15 51  1  0
 16 52  1  0
 16 53  1  0
 18 54  1  0
 18 55  1  0
 18 56  1  0
 19 57  1  0
 19 58  1  0
 20 59  1  0
 20 60  1  0
 26 61  1  0
 27 62  1  0
 32 63  1  0
 35 64  1  0
 36 65  1  0
 37 66  1  0
M  END
>  <meeko>  (2) 
{"is_sidechain": false}

>  <vina_affinity_kcal_mol>  (2) 
-10.281

>  <pose_rank>  (2) 
2

$$$$

     RDKit          3D

 66 70  0  0  0  0  0  0  0  0999 V2000
  -12.3250    5.1910  -15.6210 C   0  0  0  0  0  0  0  0  0  0  0  0
  -12.4320    4.1970  -14.4960 C   0  0  0  0  0  0  0  0  0  0  0  0
  -13.6130    4.1330  -13.7420 C   0  0  0  0  0  0  0  0  0  0  0  0
  -13.7370    3.2230  -12.6900 C   0  0  0  0  0  0  0  0  0  0  0  0
  -12.6840    2.3570  -12.3800 C   0  0  0  0  0  0  0  0  0  0  0  0
  -12.8580    1.3980  -11.2540 C   0  0  0  0  0  0  0  0  0  0  0  0
  -11.8870    0.7430  -10.8950 O   0  0  0  0  0  0  0  0  0  0  0  0
  -14.1220    1.3810  -10.6930 N   0  0  0  0  0  0  0  0  0  0  0  0
  -14.5870    0.5530   -9.6490 C   0  0  0  0  0  0  0  0  0  0  0  0
  -15.2760    1.1720   -8.6040 C   0  0  0  0  0  0  0  0  0  0  0  0
  -15.7780    0.4220   -7.5390 C   0  0  0  0  0  0  0  0  0  0  0  0
  -15.6070   -0.9720   -7.4920 C   0  0  0  0  0  0  0  0  0  0  0  0
  -16.1870   -1.7370   -6.3160 C   0  0  0  0  0  0  0  0  0  0  0  0
  -17.5240   -1.2690   -5.9490 N   0  0  0  0  0  0  0  0  0  0  0  0
  -17.8390   -1.4310   -4.5140 C   0  0  0  0  0  0  0  0  0  0  0  0
  -18.7580   -2.6330   -4.2030 C   0  0  0  0  0  0  0  0  0  0  0  0
  -20.0670   -2.5530   -4.8810 N   0  0  0  0  0  0  0  0  0  0  0  0
  -20.6660   -3.8770   -5.0130 C   0  0  0  0  0  0  0  0  0  0  0  0
  -19.9640   -1.8570   -6.1800 C   0  0  0  0  0  0  0  0  0  0  0  0
  -18.5520   -1.9010   -6.8020 C   0  0  0  0  0  0  0  0  0  0  0  0
  -14.8990   -1.6100   -8.5360 C   0  0  0  0  0  0  0  0  0  0  0  0
  -14.6680   -3.1090   -8.5740 C   0  0  0  0  0  0  0  0  0  0  0  0
  -13.5830   -3.4910   -7.8360 F   0  0  0  0  0  0  0  0  0  0  0  0
  -15.7000   -3.8410   -8.0610 F   0  0  0  0  0  0  0  0  0  0  0  0
  -14.4320   -3.5890   -9.8260 F   0  0  0  0  0  0  0  0  0  0  0  0
  -14.4100   -0.8300   -9.6090 C   0  0  0  0  0  0  0  0  0  0  0  0
  -11.4920    2.4280  -13.1100 C   0  0  0  0  0  0  0  0  0  0  0  0
  -11.3670    3.3400  -14.1670 C   0  0  0  0  0  0  0  0  0  0  0  0
  -10.1290    3.3710  -14.8880 C   0  0  0  0  0  0  0  0  0  0  0  0
   -9.0840    3.3830  -15.4800 C   0  0  0  0  0  0  0  0  0  0  0  0
   -7.8440    3.3900  -16.1700 C   0  0  0  0  0  0  0  0  0  0  0  0
   -7.4140    4.2520  -17.1530 C   0  0  0  0  0  0  0  0  0  0  0  0
   -6.1450    3.9390  -17.5750 N   0  0  0  0  0  0  0  0  0  0  0  0
   -5.7970    2.8930  -16.8560 C   0  0  0  0  0  0  0  0  0  0  0  0
   -4.6050    2.1340  -16.8420 C   0  0  0  0  0  0  0  0  0  0  0  0
   -4.4960    1.0970  -16.0020 C   0  0  0  0  0  0  0  0  0  0  0  0
   -5.6590    0.8100  -15.1280 C   0  0  0  0  0  0  0  0  0  0  0  0
   -6.7770    1.4630  -15.0940 N   0  0  0  0  0  0  0  0  0  0  0  0
   -6.8040    2.5100  -15.9790 N   0  0  0  0  0  0  0  0  0  0  0  0
  -12.2160    6.2039  -15.2062 H   0  0  0  0  0  0  0  0  0  0  0  0
  -11.4474    4.9517  -16.2395 H   0  0  0  0  0  0  0  0  0  0  0  0
  -13.2334    5.1439  -16.2395 H   0  0  0  0  0  0  0  0  0  0  0  0
  -14.4495    4.8060  -13.9816 H   0  0  0  0  0  0  0  0  0  0  0  0
  -14.6666    3.1874  -12.1030 H   0  0  0  0  0  0  0  0  0  0  0  0
  -14.7750    2.0830  -11.0160 H   0  0  0  0  0  0  0  0  0  0  0  0
  -15.4247    2.2618   -8.6202 H   0  0  0  0  0  0  0  0  0  0  0  0
  -16.3154    0.9297   -6.7245 H   0  0  0  0  0  0  0  0  0  0  0  0
  -16.2469   -2.8024   -6.5830 H   0  0  0  0  0  0  0  0  0  0  0  0
  -15.5263   -1.5737   -5.4518 H   0  0  0  0  0  0  0  0  0  0  0  0
  -16.8949   -1.5668   -3.9661 H   0  0  0  0  0  0  0  0  0  0  0  0
  -18.3830   -0.5266   -4.2041 H   0  0  0  0  0  0  0  0  0  0  0  0
  -18.2515   -3.5539   -4.5276 H   0  0  0  0  0  0  0  0  0  0  0  0
  -18.9493   -2.6275   -3.1198 H   0  0  0  0  0  0  0  0  0  0  0  0
  -20.8552   -4.2952   -4.0133 H   0  0  0  0  0  0  0  0  0  0  0  0
  -21.6155   -3.7968   -5.5626 H   0  0  0  0  0  0  0  0  0  0  0  0
  -19.9789   -4.5372   -5.5626 H   0  0  0  0  0  0  0  0  0  0  0  0
  -20.6669   -2.3286   -6.8825 H   0  0  0  0  0  0  0  0  0  0  0  0
  -20.1989   -0.7984   -5.9950 H   0  0  0  0  0  0  0  0  0  0  0  0
  -18.2737   -2.9526   -6.9651 H   0  0  0  0  0  0  0  0  0  0  0  0
  -18.5904   -1.3348   -7.7443 H   0  0  0  0  0  0  0  0  0  0  0  0
  -13.8765   -1.3263  -10.4331 H   0  0  0  0  0  0  0  0  0  0  0  0
  -10.6513    1.7666  -12.8536 H   0  0  0  0  0  0  0  0  0  0  0  0
   -8.0111    5.0860  -17.5504 H   0  0  0  0  0  0  0  0  0  0  0  0
   -3.7743    2.3928  -17.5150 H   0  0  0  0  0  0  0  0  0  0  0  0
   -3.5832    0.4845  -15.9620 H   0  0  0  0  0  0  0  0  0  0  0  0
   -5.5626   -0.0427  -14.4398 H   0  0  0  0  0  0  0  0  0  0  0  0
  1  2  1  0
  2  3  1  0
  3  4  2  0
  4  5  1  0
  5  6  1  0
  6  7  2  0
  6  8  1  0
  8  9  1  0
  9 10  1  0
 10 11  2  0
 11 12  1  0
 12 13  1  0
 13 14  1  0
 14 15  1  0
 15 16  1  0
 16 17  1  0
 17 18  1  0
 17 19  1  0
 19 20  1  0
 12 21  2  0
 21 22  1  0
 22 23  1  0
 22 24  1  0
 22 25  1  0
 21 26  1  0
  5 27  2  0
 27 28  1  0
 28 29  1  0
 29 30  3  0
 30 31  1  0
 31 32  2  0
 32 33  1  0
 33 34  2  0
 34 35  1  0
 35 36  2  0
 36 37  1  0
 37 38  2  0
 38 39  1  0
 28  2  2  0
 39 31  1  0
 26  9  2  0
 39 34  1  0
 20 14  1  0
  1 40  1  0
  1 41  1  0
  1 42  1  0
  3 43  1  0
  4 44  1  0
  8 45  1  0
 10 46  1  0
 11 47  1  0
 13 48  1  0
 13 49  1  0
 15 50  1  0
 15 51  1  0
 16 52  1  0
 16 53  1  0
 18 54  1  0
 18 55  1  0
 18 56  1  0
 19 57  1  0
 19 58  1  0
 20 59  1  0
 20 60  1  0
 26 61  1  0
 27 62  1  0
 32 63  1  0
 35 64  1  0
 36 65  1  0
 37 66  1  0
M  END
>  <meeko>  (3) 
{"is_sidechain": false}

>  <vina_affinity_kcal_mol>  (3) 
-10.05

>  <pose_rank>  (3) 
3

$$$$

     RDKit          3D

 66 70  0  0  0  0  0  0  0  0999 V2000
  -14.5810   -1.3170   -7.5330 C   0  0  0  0  0  0  0  0  0  0  0  0
  -14.1390   -0.4820   -8.7040 C   0  0  0  0  0  0  0  0  0  0  0  0
  -14.8260    0.7050   -9.0030 C   0  0  0  0  0  0  0  0  0  0  0  0
  -14.4390    1.4970  -10.0860 C   0  0  0  0  0  0  0  0  0  0  0  0
  -13.3550    1.1180  -10.8840 C   0  0  0  0  0  0  0  0  0  0  0  0
  -12.9710    1.9930  -12.0260 C   0  0  0  0  0  0  0  0  0  0  0  0
  -13.7760    2.8330  -12.4100 O   0  0  0  0  0  0  0  0  0  0  0  0
  -11.6950    1.7830  -12.5170 N   0  0  0  0  0  0  0  0  0  0  0  0
  -11.0790    2.4300  -13.6100 C   0  0  0  0  0  0  0  0  0  0  0  0
  -11.6200    3.6520  -14.0140 C   0  0  0  0  0  0  0  0  0  0  0  0
  -11.0620    4.3600  -15.0800 C   0  0  0  0  0  0  0  0  0  0  0  0
   -9.9410    3.8660  -15.7690 C   0  0  0  0  0  0  0  0  0  0  0  0
   -9.3680    4.6870  -16.9100 C   0  0  0  0  0  0  0  0  0  0  0  0
  -10.1220    5.9190  -17.1460 N   0  0  0  0  0  0  0  0  0  0  0  0
  -10.9330    5.8930  -18.3820 C   0  0  0  0  0  0  0  0  0  0  0  0
  -10.3140    6.6810  -19.5580 C   0  0  0  0  0  0  0  0  0  0  0  0
  -10.1130    8.1120  -19.2560 N   0  0  0  0  0  0  0  0  0  0  0  0
   -9.0820    8.6850  -20.1160 C   0  0  0  0  0  0  0  0  0  0  0  0
   -9.8240    8.3280  -17.8230 C   0  0  0  0  0  0  0  0  0  0  0  0
   -9.2280    7.0940  -17.1110 C   0  0  0  0  0  0  0  0  0  0  0  0
   -9.3920    2.6240  -15.3790 C   0  0  0  0  0  0  0  0  0  0  0  0
   -8.1810    2.0120  -16.0590 C   0  0  0  0  0  0  0  0  0  0  0  0
   -7.8610    0.7830  -15.5540 F   0  0  0  0  0  0  0  0  0  0  0  0
   -8.3490    1.7940  -17.3960 F   0  0  0  0  0  0  0  0  0  0  0  0
   -7.0490    2.7560  -15.9230 F   0  0  0  0  0  0  0  0  0  0  0  0
   -9.9680    1.9300  -14.2900 C   0  0  0  0  0  0  0  0  0  0  0  0
  -12.6780   -0.0750  -10.6100 C   0  0  0  0  0  0  0  0  0  0  0  0
  -13.0640   -0.8700   -9.5220 C   0  0  0  0  0  0  0  0  0  0  0  0
  -12.3360   -2.0810   -9.2790 C   0  0  0  0  0  0  0  0  0  0  0  0
  -11.7150   -3.0920   -9.0910 C   0  0  0  0  0  0  0  0  0  0  0  0
  -10.9940   -4.2940   -8.8710 C   0  0  0  0  0  0  0  0  0  0  0  0
   -9.7320   -4.4520   -8.3440 C   0  0  0  0  0  0  0  0  0  0  0  0
   -9.3770   -5.7770   -8.2840 N   0  0  0  0  0  0  0  0  0  0  0  0
  -10.4130   -6.4290   -8.7690 C   0  0  0  0  0  0  0  0  0  0  0  0
  -10.6330   -7.8130   -8.9530 C   0  0  0  0  0  0  0  0  0  0  0  0
  -11.7930   -8.2290   -9.4760 C   0  0  0  0  0  0  0  0  0  0  0  0
  -12.7860   -7.1870   -9.8360 C   0  0  0  0  0  0  0  0  0  0  0  0
  -12.6440   -5.9070   -9.6950 N   0  0  0  0  0  0  0  0  0  0  0  0
  -11.4330   -5.5660   -9.1490 N   0  0  0  0  0  0  0  0  0  0  0  0
  -14.3111   -0.8071   -6.5964 H   0  0  0  0  0  0  0  0  0  0  0  0
  -15.6713   -1.4570   -7.5732 H   0  0  0  0  0  0  0  0  0  0  0  0
  -14.0837   -2.2974   -7.5732 H   0  0  0  0  0  0  0  0  0  0  0  0
  -15.6771    1.0142   -8.3784 H   0  0  0  0  0  0  0  0  0  0  0  0
  -14.9889    2.4224  -10.3122 H   0  0  0  0  0  0  0  0  0  0  0  0
  -11.1050    1.1450  -11.9990 H   0  0  0  0  0  0  0  0  0  0  0  0
  -12.4947    4.0610  -13.4871 H   0  0  0  0  0  0  0  0  0  0  0  0
  -11.5063    5.3188  -15.3853 H   0  0  0  0  0  0  0  0  0  0  0  0
   -8.3279    4.9506  -16.6677 H   0  0  0  0  0  0  0  0  0  0  0  0
   -9.4276    4.0777  -17.8239 H   0  0  0  0  0  0  0  0  0  0  0  0
  -11.0543    4.8451  -18.6939 H   0  0  0  0  0  0  0  0  0  0  0  0
  -11.8910    6.3783  -18.1437 H   0  0  0  0  0  0  0  0  0  0  0  0
   -9.3389    6.2349  -19.8032 H   0  0  0  0  0  0  0  0  0  0  0  0
  -11.0191    6.6200  -20.4001 H   0  0  0  0  0  0  0  0  0  0  0  0
   -8.2890    9.1257  -19.4940 H   0  0  0  0  0  0  0  0  0  0  0  0
   -8.6537    7.8955  -20.7510 H   0  0  0  0  0  0  0  0  0  0  0  0
   -9.5264    9.4656  -20.7510 H   0  0  0  0  0  0  0  0  0  0  0  0
   -9.1072    9.1578  -17.7357 H   0  0  0  0  0  0  0  0  0  0  0  0
  -10.7846    8.5457  -17.3332 H   0  0  0  0  0  0  0  0  0  0  0  0
   -8.2810    6.8286  -17.6037 H   0  0  0  0  0  0  0  0  0  0  0  0
   -9.0803    7.3634  -16.0548 H   0  0  0  0  0  0  0  0  0  0  0  0
   -9.5296    0.9728  -13.9712 H   0  0  0  0  0  0  0  0  0  0  0  0
  -11.8406   -0.3901  -11.2499 H   0  0  0  0  0  0  0  0  0  0  0  0
   -9.0899   -3.6224   -8.0131 H   0  0  0  0  0  0  0  0  0  0  0  0
   -9.8588   -8.5411   -8.6693 H   0  0  0  0  0  0  0  0  0  0  0  0
  -12.0011   -9.2978   -9.6322 H   0  0  0  0  0  0  0  0  0  0  0  0
  -13.7369   -7.5358  -10.2651 H   0  0  0  0  0  0  0  0  0  0  0  0
  1  2  1  0
  2  3  1  0
  3  4  2  0
  4  5  1  0
  5  6  1  0
  6  7  2  0
  6  8  1  0
  8  9  1  0
  9 10  1  0
 10 11  2  0
 11 12  1  0
 12 13  1  0
 13 14  1  0
 14 15  1  0
 15 16  1  0
 16 17  1  0
 17 18  1  0
 17 19  1  0
 19 20  1  0
 12 21  2  0
 21 22  1  0
 22 23  1  0
 22 24  1  0
 22 25  1  0
 21 26  1  0
  5 27  2  0
 27 28  1  0
 28 29  1  0
 29 30  3  0
 30 31  1  0
 31 32  2  0
 32 33  1  0
 33 34  2  0
 34 35  1  0
 35 36  2  0
 36 37  1  0
 37 38  2  0
 38 39  1  0
 28  2  2  0
 39 31  1  0
 26  9  2  0
 39 34  1  0
 20 14  1  0
  1 40  1  0
  1 41  1  0
  1 42  1  0
  3 43  1  0
  4 44  1  0
  8 45  1  0
 10 46  1  0
 11 47  1  0
 13 48  1  0
 13 49  1  0
 15 50  1  0
 15 51  1  0
 16 52  1  0
 16 53  1  0
 18 54  1  0
 18 55  1  0
 18 56  1  0
 19 57  1  0
 19 58  1  0
 20 59  1  0
 20 60  1  0
 26 61  1  0
 27 62  1  0
 32 63  1  0
 35 64  1  0
 36 65  1  0
 37 66  1  0
M  END
>  <meeko>  (4) 
{"is_sidechain": false}

>  <vina_affinity_kcal_mol>  (4) 
-10.024

>  <pose_rank>  (4) 
4

$$$$

     RDKit          3D

 66 70  0  0  0  0  0  0  0  0999 V2000
   -8.8960   -3.8750   -8.4090 C   0  0  0  0  0  0  0  0  0  0  0  0
   -9.2790   -2.9540   -9.5350 C   0  0  0  0  0  0  0  0  0  0  0  0
   -8.2730   -2.3350  -10.2930 C   0  0  0  0  0  0  0  0  0  0  0  0
   -8.6010   -1.4730  -11.3410 C   0  0  0  0  0  0  0  0  0  0  0  0
   -9.9410   -1.2220  -11.6540 C   0  0  0  0  0  0  0  0  0  0  0  0
  -10.2490   -0.3010  -12.7820 C   0  0  0  0  0  0  0  0  0  0  0  0
  -10.4150   -0.7830  -13.8960 O   0  0  0  0  0  0  0  0  0  0  0  0
  -10.3600    1.0330  -12.4320 N   0  0  0  0  0  0  0  0  0  0  0  0
  -10.6030    2.1270  -13.2880 C   0  0  0  0  0  0  0  0  0  0  0  0
   -9.5140    2.6340  -13.9990 C   0  0  0  0  0  0  0  0  0  0  0  0
   -9.6730    3.7090  -14.8760 C   0  0  0  0  0  0  0  0  0  0  0  0
  -10.9300    4.3040  -15.0700 C   0  0  0  0  0  0  0  0  0  0  0  0
  -11.0460    5.4610  -16.0470 C   0  0  0  0  0  0  0  0  0  0  0  0
   -9.8140    5.6760  -16.8070 N   0  0  0  0  0  0  0  0  0  0  0  0
   -9.3170    7.0670  -16.7530 C   0  0  0  0  0  0  0  0  0  0  0  0
   -9.6120    7.8900  -18.0270 C   0  0  0  0  0  0  0  0  0  0  0  0
   -9.0110    7.3100  -19.2440 N   0  0  0  0  0  0  0  0  0  0  0  0
   -9.7190    7.7620  -20.4390 C   0  0  0  0  0  0  0  0  0  0  0  0
   -8.9400    5.8370  -19.1640 C   0  0  0  0  0  0  0  0  0  0  0  0
   -9.9700    5.2110  -18.2000 C   0  0  0  0  0  0  0  0  0  0  0  0
  -12.0400    3.8100  -14.3460 C   0  0  0  0  0  0  0  0  0  0  0  0
  -13.4370    4.3860  -14.4910 C   0  0  0  0  0  0  0  0  0  0  0  0
  -14.3800    3.4220  -14.7120 F   0  0  0  0  0  0  0  0  0  0  0  0
  -13.8810    5.0460  -13.3820 F   0  0  0  0  0  0  0  0  0  0  0  0
  -13.5610    5.2480  -15.5370 F   0  0  0  0  0  0  0  0  0  0  0  0
  -11.8560    2.7140  -13.4720 C   0  0  0  0  0  0  0  0  0  0  0  0
  -10.9530   -1.8150  -10.8900 C   0  0  0  0  0  0  0  0  0  0  0  0
  -10.6250   -2.6820   -9.8390 C   0  0  0  0  0  0  0  0  0  0  0  0
  -11.6960   -3.2700   -9.0890 C   0  0  0  0  0  0  0  0  0  0  0  0
  -12.6070   -3.7520   -8.4720 C   0  0  0  0  0  0  0  0  0  0  0  0
  -13.6800   -4.3330   -7.7490 C   0  0  0  0  0  0  0  0  0  0  0  0
  -14.6480   -3.7050   -6.9980 C   0  0  0  0  0  0  0  0  0  0  0  0
  -15.5240   -4.6110   -6.4520 N   0  0  0  0  0  0  0  0  0  0  0  0
  -15.1000   -5.7860   -6.8660 C   0  0  0  0  0  0  0  0  0  0  0  0
  -15.6020   -7.0870   -6.6320 C   0  0  0  0  0  0  0  0  0  0  0  0
  -14.9780   -8.1380   -7.1760 C   0  0  0  0  0  0  0  0  0  0  0  0
  -13.7780   -7.8610   -8.0020 C   0  0  0  0  0  0  0  0  0  0  0  0
  -13.2680   -6.6970   -8.2520 N   0  0  0  0  0  0  0  0  0  0  0  0
  -13.9680   -5.6750   -7.6630 N   0  0  0  0  0  0  0  0  0  0  0  0
   -9.1007   -3.3827   -7.4469 H   0  0  0  0  0  0  0  0  0  0  0  0
   -9.4829   -4.8028   -8.4784 H   0  0  0  0  0  0  0  0  0  0  0  0
   -7.8243   -4.1130   -8.4784 H   0  0  0  0  0  0  0  0  0  0  0  0
   -7.2162   -2.5309  -10.0591 H   0  0  0  0  0  0  0  0  0  0  0  0
   -7.8026   -0.9893  -11.9229 H   0  0  0  0  0  0  0  0  0  0  0  0
  -10.3310    1.2500  -11.4440 H   0  0  0  0  0  0  0  0  0  0  0  0
   -8.5199    2.1819  -13.8670 H   0  0  0  0  0  0  0  0  0  0  0  0
   -8.8004    4.0955  -15.4231 H   0  0  0  0  0  0  0  0  0  0  0  0
  -11.8630    5.2474  -16.7519 H   0  0  0  0  0  0  0  0  0  0  0  0
  -11.2438    6.3729  -15.4645 H   0  0  0  0  0  0  0  0  0  0  0  0
   -9.7917    7.5709  -15.8981 H   0  0  0  0  0  0  0  0  0  0  0  0
   -8.2226    7.0103  -16.6572 H   0  0  0  0  0  0  0  0  0  0  0  0
  -10.7020    7.9418  -18.1656 H   0  0  0  0  0  0  0  0  0  0  0  0
   -9.1668    8.8857  -17.8843 H   0  0  0  0  0  0  0  0  0  0  0  0
  -10.6119    8.3320  -20.1426 H   0  0  0  0  0  0  0  0  0  0  0  0
   -9.0559    8.4042  -21.0372 H   0  0  0  0  0  0  0  0  0  0  0  0
  -10.0225    6.8902  -21.0372 H   0  0  0  0  0  0  0  0  0  0  0  0
   -9.1138    5.4271  -20.1699 H   0  0  0  0  0  0  0  0  0  0  0  0
   -7.9433    5.5870  -18.7714 H   0  0  0  0  0  0  0  0  0  0  0  0
  -10.9800    5.4751  -18.5466 H   0  0  0  0  0  0  0  0  0  0  0  0
   -9.8056    4.1234  -18.2040 H   0  0  0  0  0  0  0  0  0  0  0  0
  -12.7216    2.3140  -12.9235 H   0  0  0  0  0  0  0  0  0  0  0  0
  -12.0080   -1.6000  -11.1151 H   0  0  0  0  0  0  0  0  0  0  0  0
  -14.7117   -2.6164   -6.8537 H   0  0  0  0  0  0  0  0  0  0  0  0
  -16.4966   -7.2335   -6.0089 H   0  0  0  0  0  0  0  0  0  0  0  0
  -15.3399   -9.1646   -7.0172 H   0  0  0  0  0  0  0  0  0  0  0  0
  -13.2708   -8.7301   -8.4464 H   0  0  0  0  0  0  0  0  0  0  0  0
  1  2  1  0
  2  3  1  0
  3  4  2  0
  4  5  1  0
  5  6  1  0
  6  7  2  0
  6  8  1  0
  8  9  1  0
  9 10  1  0
 10 11  2  0
 11 12  1  0
 12 13  1  0
 13 14  1  0
 14 15  1  0
 15 16  1  0
 16 17  1  0
 17 18  1  0
 17 19  1  0
 19 20  1  0
 12 21  2  0
 21 22  1  0
 22 23  1  0
 22 24  1  0
 22 25  1  0
 21 26  1  0
  5 27  2  0
 27 28  1  0
 28 29  1  0
 29 30  3  0
 30 31  1  0
 31 32  2  0
 32 33  1  0
 33 34  2  0
 34 35  1  0
 35 36  2  0
 36 37  1  0
 37 38  2  0
 38 39  1  0
 28  2  2  0
 39 31  1  0
 26  9  2  0
 39 34  1  0
 20 14  1  0
  1 40  1  0
  1 41  1  0
  1 42  1  0
  3 43  1  0
  4 44  1  0
  8 45  1  0
 10 46  1  0
 11 47  1  0
 13 48  1  0
 13 49  1  0
 15 50  1  0
 15 51  1  0
 16 52  1  0
 16 53  1  0
 18 54  1  0
 18 55  1  0
 18 56  1  0
 19 57  1  0
 19 58  1  0
 20 59  1  0
 20 60  1  0
 26 61  1  0
 27 62  1  0
 32 63  1  0
 35 64  1  0
 36 65  1  0
 37 66  1  0
M  END
>  <meeko>  (5) 
{"is_sidechain": false}

>  <vina_affinity_kcal_mol>  (5) 
-9.998

>  <pose_rank>  (5) 
5

$$$$

     RDKit          3D

 66 70  0  0  0  0  0  0  0  0999 V2000
   -8.1490    2.5560  -16.9280 C   0  0  0  0  0  0  0  0  0  0  0  0
   -9.1540    2.4750  -15.8100 C   0  0  0  0  0  0  0  0  0  0  0  0
   -9.3020    1.2720  -15.1020 C   0  0  0  0  0  0  0  0  0  0  0  0
  -10.2290    1.1680  -14.0630 C   0  0  0  0  0  0  0  0  0  0  0  0
  -11.0170    2.2680  -13.7100 C   0  0  0  0  0  0  0  0  0  0  0  0
  -11.9900    2.1180  -12.5920 C   0  0  0  0  0  0  0  0  0  0  0  0
  -12.9620    2.8640  -12.5670 O   0  0  0  0  0  0  0  0  0  0  0  0
  -11.7040    1.0970  -11.7040 N   0  0  0  0  0  0  0  0  0  0  0  0
  -12.4190    0.7490  -10.5390 C   0  0  0  0  0  0  0  0  0  0  0  0
  -13.8130    0.7860  -10.6120 C   0  0  0  0  0  0  0  0  0  0  0  0
  -14.5940    0.4440   -9.5060 C   0  0  0  0  0  0  0  0  0  0  0  0
  -14.0000    0.0510   -8.2950 C   0  0  0  0  0  0  0  0  0  0  0  0
  -14.8990   -0.3240   -7.1310 C   0  0  0  0  0  0  0  0  0  0  0  0
  -15.7500   -1.4760   -7.4290 N   0  0  0  0  0  0  0  0  0  0  0  0
  -17.1830   -1.2470   -7.1500 C   0  0  0  0  0  0  0  0  0  0  0  0
  -17.6810   -1.8960   -5.8400 C   0  0  0  0  0  0  0  0  0  0  0  0
  -17.5120   -3.3620   -5.8190 N   0  0  0  0  0  0  0  0  0  0  0  0
  -17.4730   -3.8620   -4.4480 C   0  0  0  0  0  0  0  0  0  0  0  0
  -16.3290   -3.7830   -6.5970 C   0  0  0  0  0  0  0  0  0  0  0  0
  -15.2530   -2.6860   -6.7420 C   0  0  0  0  0  0  0  0  0  0  0  0
  -12.5890    0.0220   -8.2030 C   0  0  0  0  0  0  0  0  0  0  0  0
  -11.8580   -0.3930   -6.9390 C   0  0  0  0  0  0  0  0  0  0  0  0
  -12.1170   -1.6880   -6.5850 F   0  0  0  0  0  0  0  0  0  0  0  0
  -10.4980   -0.3380   -7.0440 F   0  0  0  0  0  0  0  0  0  0  0  0
  -12.1980    0.3470   -5.8490 F   0  0  0  0  0  0  0  0  0  0  0  0
  -11.8210    0.3610   -9.3390 C   0  0  0  0  0  0  0  0  0  0  0  0
  -10.8940    3.4660  -14.4240 C   0  0  0  0  0  0  0  0  0  0  0  0
   -9.9630    3.5720  -15.4660 C   0  0  0  0  0  0  0  0  0  0  0  0
   -9.8710    4.8200  -16.1640 C   0  0  0  0  0  0  0  0  0  0  0  0
   -9.8080    5.8730  -16.7380 C   0  0  0  0  0  0  0  0  0  0  0  0
   -9.7320    7.1100  -17.4290 C   0  0  0  0  0  0  0  0  0  0  0  0
   -9.5880    8.3760  -16.9070 C   0  0  0  0  0  0  0  0  0  0  0  0
   -9.5490    9.3260  -17.8980 N   0  0  0  0  0  0  0  0  0  0  0  0
   -9.6670    8.6490  -19.0210 C   0  0  0  0  0  0  0  0  0  0  0  0
   -9.6890    9.0830  -20.3660 C   0  0  0  0  0  0  0  0  0  0  0  0
   -9.8230    8.1800  -21.3450 C   0  0  0  0  0  0  0  0  0  0  0  0
   -9.9430    6.7580  -20.9430 C   0  0  0  0  0  0  0  0  0  0  0  0
   -9.9320    6.2970  -19.7320 N   0  0  0  0  0  0  0  0  0  0  0  0
   -9.7870    7.2840  -18.7920 N   0  0  0  0  0  0  0  0  0  0  0  0
   -7.1366    2.6376  -16.5057 H   0  0  0  0  0  0  0  0  0  0  0  0
   -8.2159    1.6495  -17.5476 H   0  0  0  0  0  0  0  0  0  0  0  0
   -8.3602    3.4400  -17.5476 H   0  0  0  0  0  0  0  0  0  0  0  0
   -8.6820    0.4032  -15.3681 H   0  0  0  0  0  0  0  0  0  0  0  0
  -10.3398    0.2176  -13.5203 H   0  0  0  0  0  0  0  0  0  0  0  0
  -10.9360    0.4840  -11.9450 H   0  0  0  0  0  0  0  0  0  0  0  0
  -14.3010    1.0877  -11.5505 H   0  0  0  0  0  0  0  0  0  0  0  0
  -15.6905    0.4829   -9.5841 H   0  0  0  0  0  0  0  0  0  0  0  0
  -14.2690   -0.5661   -6.2624 H   0  0  0  0  0  0  0  0  0  0  0  0
  -15.5569    0.5337   -6.9269 H   0  0  0  0  0  0  0  0  0  0  0  0
  -17.3534   -0.1622   -7.0848 H   0  0  0  0  0  0  0  0  0  0  0  0
  -17.7453   -1.7163   -7.9707 H   0  0  0  0  0  0  0  0  0  0  0  0
  -17.1158   -1.4665   -4.9997 H   0  0  0  0  0  0  0  0  0  0  0  0
  -18.7584   -1.6891   -5.7606 H   0  0  0  0  0  0  0  0  0  0  0  0
  -17.5389   -3.0166   -3.7474 H   0  0  0  0  0  0  0  0  0  0  0  0
  -18.3208   -4.5429   -4.2818 H   0  0  0  0  0  0  0  0  0  0  0  0
  -16.5299   -4.4033   -4.2818 H   0  0  0  0  0  0  0  0  0  0  0  0
  -15.8745   -4.6496   -6.0946 H   0  0  0  0  0  0  0  0  0  0  0  0
  -16.6819   -4.0201   -7.6115 H   0  0  0  0  0  0  0  0  0  0  0  0
  -14.9056   -2.4011   -5.7379 H   0  0  0  0  0  0  0  0  0  0  0  0
  -14.4402   -3.1019   -7.3555 H   0  0  0  0  0  0  0  0  0  0  0  0
  -10.7236    0.3181   -9.2763 H   0  0  0  0  0  0  0  0  0  0  0  0
  -11.5296    4.3260  -14.1665 H   0  0  0  0  0  0  0  0  0  0  0  0
   -9.5136    8.5983  -15.8323 H   0  0  0  0  0  0  0  0  0  0  0  0
   -9.5969   10.1526  -20.6059 H   0  0  0  0  0  0  0  0  0  0  0  0
   -9.8432    8.4803  -22.4030 H   0  0  0  0  0  0  0  0  0  0  0  0
  -10.0522    6.0215  -21.7527 H   0  0  0  0  0  0  0  0  0  0  0  0
  1  2  1  0
  2  3  1  0
  3  4  2  0
  4  5  1  0
  5  6  1  0
  6  7  2  0
  6  8  1  0
  8  9  1  0
  9 10  1  0
 10 11  2  0
 11 12  1  0
 12 13  1  0
 13 14  1  0
 14 15  1  0
 15 16  1  0
 16 17  1  0
 17 18  1  0
 17 19  1  0
 19 20  1  0
 12 21  2  0
 21 22  1  0
 22 23  1  0
 22 24  1  0
 22 25  1  0
 21 26  1  0
  5 27  2  0
 27 28  1  0
 28 29  1  0
 29 30  3  0
 30 31  1  0
 31 32  2  0
 32 33  1  0
 33 34  2  0
 34 35  1  0
 35 36  2  0
 36 37  1  0
 37 38  2  0
 38 39  1  0
 28  2  2  0
 39 31  1  0
 26  9  2  0
 39 34  1  0
 20 14  1  0
  1 40  1  0
  1 41  1  0
  1 42  1  0
  3 43  1  0
  4 44  1  0
  8 45  1  0
 10 46  1  0
 11 47  1  0
 13 48  1  0
 13 49  1  0
 15 50  1  0
 15 51  1  0
 16 52  1  0
 16 53  1  0
 18 54  1  0
 18 55  1  0
 18 56  1  0
 19 57  1  0
 19 58  1  0
 20 59  1  0
 20 60  1  0
 26 61  1  0
 27 62  1  0
 32 63  1  0
 35 64  1  0
 36 65  1  0
 37 66  1  0
M  END
>  <meeko>  (6) 
{"is_sidechain": false}

>  <vina_affinity_kcal_mol>  (6) 
-9.935

>  <pose_rank>  (6) 
6

$$$$

     RDKit          3D

 66 70  0  0  0  0  0  0  0  0999 V2000
   -9.8310    5.1170  -16.6140 C   0  0  0  0  0  0  0  0  0  0  0  0
  -10.5190    4.3480  -15.5180 C   0  0  0  0  0  0  0  0  0  0  0  0
  -11.7300    4.8270  -14.9960 C   0  0  0  0  0  0  0  0  0  0  0  0
  -12.3870    4.1360  -13.9760 C   0  0  0  0  0  0  0  0  0  0  0  0
  -11.8470    2.9500  -13.4680 C   0  0  0  0  0  0  0  0  0  0  0  0
  -12.5820    2.2400  -12.3840 C   0  0  0  0  0  0  0  0  0  0  0  0
  -13.7310    2.5860  -12.1390 O   0  0  0  0  0  0  0  0  0  0  0  0
  -11.8810    1.2090  -11.7850 N   0  0  0  0  0  0  0  0  0  0  0  0
  -12.3030    0.3940  -10.7130 C   0  0  0  0  0  0  0  0  0  0  0  0
  -11.6020   -0.7950  -10.5020 C   0  0  0  0  0  0  0  0  0  0  0  0
  -11.9500   -1.6510   -9.4560 C   0  0  0  0  0  0  0  0  0  0  0  0
  -13.0080   -1.3380   -8.5860 C   0  0  0  0  0  0  0  0  0  0  0  0
  -13.3310   -2.3000   -7.4570 C   0  0  0  0  0  0  0  0  0  0  0  0
  -13.9800   -3.5220   -7.9320 N   0  0  0  0  0  0  0  0  0  0  0  0
  -15.3050   -3.7680   -7.3240 C   0  0  0  0  0  0  0  0  0  0  0  0
  -15.2990   -4.8430   -6.2140 C   0  0  0  0  0  0  0  0  0  0  0  0
  -14.8380   -6.1630   -6.6870 N   0  0  0  0  0  0  0  0  0  0  0  0
  -14.3390   -6.9680   -5.5770 C   0  0  0  0  0  0  0  0  0  0  0  0
  -13.8420   -6.0330   -7.7710 C   0  0  0  0  0  0  0  0  0  0  0  0
  -13.0870   -4.6870   -7.7690 C   0  0  0  0  0  0  0  0  0  0  0  0
  -13.7350   -0.1440   -8.7960 C   0  0  0  0  0  0  0  0  0  0  0  0
  -14.8900    0.2800   -7.9080 C   0  0  0  0  0  0  0  0  0  0  0  0
  -15.3990    1.5000   -8.2570 F   0  0  0  0  0  0  0  0  0  0  0  0
  -15.9640   -0.5610   -7.9580 F   0  0  0  0  0  0  0  0  0  0  0  0
  -14.5480    0.4020   -6.5960 F   0  0  0  0  0  0  0  0  0  0  0  0
  -13.3570    0.7120   -9.8560 C   0  0  0  0  0  0  0  0  0  0  0  0
  -10.6280    2.4750  -13.9650 C   0  0  0  0  0  0  0  0  0  0  0  0
   -9.9680    3.1680  -14.9890 C   0  0  0  0  0  0  0  0  0  0  0  0
   -8.7250    2.6390  -15.4690 C   0  0  0  0  0  0  0  0  0  0  0  0
   -7.6850    2.1830  -15.8580 C   0  0  0  0  0  0  0  0  0  0  0  0
   -6.4580    1.6310  -16.3090 C   0  0  0  0  0  0  0  0  0  0  0  0
   -5.3920    2.2760  -16.8940 C   0  0  0  0  0  0  0  0  0  0  0  0
   -4.3770    1.4000  -17.1910 N   0  0  0  0  0  0  0  0  0  0  0  0
   -4.8150    0.2250  -16.7890 C   0  0  0  0  0  0  0  0  0  0  0  0
   -4.2100   -1.0520  -16.8280 C   0  0  0  0  0  0  0  0  0  0  0  0
   -4.8760   -2.1090  -16.3480 C   0  0  0  0  0  0  0  0  0  0  0  0
   -6.2320   -1.8620  -15.7990 C   0  0  0  0  0  0  0  0  0  0  0  0
   -6.8410   -0.7210  -15.7370 N   0  0  0  0  0  0  0  0  0  0  0  0
   -6.0900    0.3080  -16.2440 N   0  0  0  0  0  0  0  0  0  0  0  0
   -9.1599    5.8671  -16.1701 H   0  0  0  0  0  0  0  0  0  0  0  0
   -9.2458    4.4241  -17.2364 H   0  0  0  0  0  0  0  0  0  0  0  0
  -10.5845    5.6218  -17.2364 H   0  0  0  0  0  0  0  0  0  0  0  0
  -12.1658    5.7553  -15.3939 H   0  0  0  0  0  0  0  0  0  0  0  0
  -13.3324    4.5257  -13.5706 H   0  0  0  0  0  0  0  0  0  0  0  0
  -10.9910    0.9600  -12.1970 H   0  0  0  0  0  0  0  0  0  0  0  0
  -10.7668   -1.0598  -11.1671 H   0  0  0  0  0  0  0  0  0  0  0  0
  -11.3874   -2.5850   -9.3105 H   0  0  0  0  0  0  0  0  0  0  0  0
  -12.3953   -2.5727   -6.9470 H   0  0  0  0  0  0  0  0  0  0  0  0
  -14.0298   -1.7933   -6.7751 H   0  0  0  0  0  0  0  0  0  0  0  0
  -15.6664   -2.8244   -6.8893 H   0  0  0  0  0  0  0  0  0  0  0  0
  -15.9577   -4.1432   -8.1260 H   0  0  0  0  0  0  0  0  0  0  0  0
  -14.6315   -4.5081   -5.4063 H   0  0  0  0  0  0  0  0  0  0  0  0
  -16.3365   -4.9629   -5.8688 H   0  0  0  0  0  0  0  0  0  0  0  0
  -14.6293   -6.4997   -4.6249 H   0  0  0  0  0  0  0  0  0  0  0  0
  -14.7692   -7.9788   -5.6347 H   0  0  0  0  0  0  0  0  0  0  0  0
  -13.2424   -7.0324   -5.6347 H   0  0  0  0  0  0  0  0  0  0  0  0
  -13.1057   -6.8432   -7.6637 H   0  0  0  0  0  0  0  0  0  0  0  0
  -14.3948   -6.0874   -8.7205 H   0  0  0  0  0  0  0  0  0  0  0  0
  -12.5520   -4.5870   -6.8131 H   0  0  0  0  0  0  0  0  0  0  0  0
  -12.3988   -4.6955   -8.6270 H   0  0  0  0  0  0  0  0  0  0  0  0
  -13.9076    1.6520  -10.0087 H   0  0  0  0  0  0  0  0  0  0  0  0
  -10.1871    1.5561  -13.5512 H   0  0  0  0  0  0  0  0  0  0  0  0
   -5.3575    3.3564  -17.0978 H   0  0  0  0  0  0  0  0  0  0  0  0
   -3.2013   -1.1758  -17.2489 H   0  0  0  0  0  0  0  0  0  0  0  0
   -4.4369   -3.1175  -16.3600 H   0  0  0  0  0  0  0  0  0  0  0  0
   -6.7738   -2.7348  -15.4056 H   0  0  0  0  0  0  0  0  0  0  0  0
  1  2  1  0
  2  3  1  0
  3  4  2  0
  4  5  1  0
  5  6  1  0
  6  7  2  0
  6  8  1  0
  8  9  1  0
  9 10  1  0
 10 11  2  0
 11 12  1  0
 12 13  1  0
 13 14  1  0
 14 15  1  0
 15 16  1  0
 16 17  1  0
 17 18  1  0
 17 19  1  0
 19 20  1  0
 12 21  2  0
 21 22  1  0
 22 23  1  0
 22 24  1  0
 22 25  1  0
 21 26  1  0
  5 27  2  0
 27 28  1  0
 28 29  1  0
 29 30  3  0
 30 31  1  0
 31 32  2  0
 32 33  1  0
 33 34  2  0
 34 35  1  0
 35 36  2  0
 36 37  1  0
 37 38  2  0
 38 39  1  0
 28  2  2  0
 39 31  1  0
 26  9  2  0
 39 34  1  0
 20 14  1  0
  1 40  1  0
  1 41  1  0
  1 42  1  0
  3 43  1  0
  4 44  1  0
  8 45  1  0
 10 46  1  0
 11 47  1  0
 13 48  1  0
 13 49  1  0
 15 50  1  0
 15 51  1  0
 16 52  1  0
 16 53  1  0
 18 54  1  0
 18 55  1  0
 18 56  1  0
 19 57  1  0
 19 58  1  0
 20 59  1  0
 20 60  1  0
 26 61  1  0
 27 62  1  0
 32 63  1  0
 35 64  1  0
 36 65  1  0
 37 66  1  0
M  END
>  <meeko>  (7) 
{"is_sidechain": false}

>  <vina_affinity_kcal_mol>  (7) 
-9.918

>  <pose_rank>  (7) 
7

$$$$

     RDKit          3D

 66 70  0  0  0  0  0  0  0  0999 V2000
   -9.5800    4.9420  -17.1150 C   0  0  0  0  0  0  0  0  0  0  0  0
  -10.3570    4.3280  -15.9820 C   0  0  0  0  0  0  0  0  0  0  0  0
  -11.4610    5.0130  -15.4520 C   0  0  0  0  0  0  0  0  0  0  0  0
  -12.1970    4.4670  -14.3970 C   0  0  0  0  0  0  0  0  0  0  0  0
  -11.8440    3.2250  -13.8620 C   0  0  0  0  0  0  0  0  0  0  0  0
  -12.6580    2.6750  -12.7410 C   0  0  0  0  0  0  0  0  0  0  0  0
  -13.8130    3.0640  -12.6180 O   0  0  0  0  0  0  0  0  0  0  0  0
  -12.0150    1.7270  -11.9660 N   0  0  0  0  0  0  0  0  0  0  0  0
  -12.5180    1.0690  -10.8240 C   0  0  0  0  0  0  0  0  0  0  0  0
  -13.8960    1.1310  -10.6080 C   0  0  0  0  0  0  0  0  0  0  0  0
  -14.4750    0.4960   -9.5070 C   0  0  0  0  0  0  0  0  0  0  0  0
  -13.6890   -0.2240   -8.5920 C   0  0  0  0  0  0  0  0  0  0  0  0
  -14.3740   -0.9060   -7.4220 C   0  0  0  0  0  0  0  0  0  0  0  0
  -14.8890   -2.2300   -7.7700 N   0  0  0  0  0  0  0  0  0  0  0  0
  -16.3590   -2.2800   -7.9130 C   0  0  0  0  0  0  0  0  0  0  0  0
  -17.0890   -2.9040   -6.7030 C   0  0  0  0  0  0  0  0  0  0  0  0
  -16.6780   -4.2960   -6.4330 N   0  0  0  0  0  0  0  0  0  0  0  0
  -16.9460   -4.6580   -5.0450 C   0  0  0  0  0  0  0  0  0  0  0  0
  -15.2680   -4.5270   -6.8060 C   0  0  0  0  0  0  0  0  0  0  0  0
  -14.4050   -3.2480   -6.8150 C   0  0  0  0  0  0  0  0  0  0  0  0
  -12.2900   -0.2830   -8.7900 C   0  0  0  0  0  0  0  0  0  0  0  0
  -11.3610   -1.0390   -7.8580 C   0  0  0  0  0  0  0  0  0  0  0  0
  -11.5610   -0.7180   -6.5450 F   0  0  0  0  0  0  0  0  0  0  0  0
  -11.5150   -2.3940   -7.9030 F   0  0  0  0  0  0  0  0  0  0  0  0
  -10.0420   -0.7870   -8.0870 F   0  0  0  0  0  0  0  0  0  0  0  0
  -11.7290    0.3580   -9.9180 C   0  0  0  0  0  0  0  0  0  0  0  0
  -10.7310    2.5440  -14.3660 C   0  0  0  0  0  0  0  0  0  0  0  0
   -9.9920    3.0890  -15.4250 C   0  0  0  0  0  0  0  0  0  0  0  0
   -8.8640    2.3510  -15.9120 C   0  0  0  0  0  0  0  0  0  0  0  0
   -7.9210    1.7200  -16.3050 C   0  0  0  0  0  0  0  0  0  0  0  0
   -6.8080    0.9660  -16.7580 C   0  0  0  0  0  0  0  0  0  0  0  0
   -5.9250    1.2660  -17.7710 C   0  0  0  0  0  0  0  0  0  0  0  0
   -4.9700    0.2870  -17.9090 N   0  0  0  0  0  0  0  0  0  0  0  0
   -5.2640   -0.6060  -16.9870 C   0  0  0  0  0  0  0  0  0  0  0  0
   -4.6360   -1.8250  -16.6470 C   0  0  0  0  0  0  0  0  0  0  0  0
   -5.1380   -2.5660  -15.6510 C   0  0  0  0  0  0  0  0  0  0  0  0
   -6.3440   -2.0460  -14.9620 C   0  0  0  0  0  0  0  0  0  0  0  0
   -6.9650   -0.9410  -15.2260 N   0  0  0  0  0  0  0  0  0  0  0  0
   -6.3850   -0.2410  -16.2540 N   0  0  0  0  0  0  0  0  0  0  0  0
   -8.7780    5.5757  -16.7086 H   0  0  0  0  0  0  0  0  0  0  0  0
   -9.1401    4.1449  -17.7323 H   0  0  0  0  0  0  0  0  0  0  0  0
  -10.2539    5.5542  -17.7323 H   0  0  0  0  0  0  0  0  0  0  0  0
  -11.7497    5.9884  -15.8707 H   0  0  0  0  0  0  0  0  0  0  0  0
  -13.0569    5.0165  -13.9863 H   0  0  0  0  0  0  0  0  0  0  0  0
  -11.1070    1.4150  -12.2840 H   0  0  0  0  0  0  0  0  0  0  0  0
  -14.5326    1.6861  -11.3127 H   0  0  0  0  0  0  0  0  0  0  0  0
  -15.5624    0.5606   -9.3541 H   0  0  0  0  0  0  0  0  0  0  0  0
  -13.6485   -1.0138   -6.6022 H   0  0  0  0  0  0  0  0  0  0  0  0
  -15.2295   -0.2816   -7.1248 H   0  0  0  0  0  0  0  0  0  0  0  0
  -16.7283   -1.2525   -8.0471 H   0  0  0  0  0  0  0  0  0  0  0  0
  -16.5720   -2.9241   -8.7789 H   0  0  0  0  0  0  0  0  0  0  0  0
  -16.8726   -2.2961   -5.8121 H   0  0  0  0  0  0  0  0  0  0  0  0
  -18.1630   -2.9195   -6.9404 H   0  0  0  0  0  0  0  0  0  0  0  0
  -16.4264   -3.9561   -4.3761 H   0  0  0  0  0  0  0  0  0  0  0  0
  -18.0287   -4.6110   -4.8563 H   0  0  0  0  0  0  0  0  0  0  0  0
  -16.5850   -5.6798   -4.8563 H   0  0  0  0  0  0  0  0  0  0  0  0
  -14.8309   -5.2344   -6.0860 H   0  0  0  0  0  0  0  0  0  0  0  0
  -15.2701   -4.9175   -7.8344 H   0  0  0  0  0  0  0  0  0  0  0  0
  -14.4135   -2.8127   -5.8048 H   0  0  0  0  0  0  0  0  0  0  0  0
  -13.3916   -3.5379   -7.1296 H   0  0  0  0  0  0  0  0  0  0  0  0
  -10.6437    0.2950  -10.0861 H   0  0  0  0  0  0  0  0  0  0  0  0
  -10.4350    1.5784  -13.9302 H   0  0  0  0  0  0  0  0  0  0  0  0
   -5.9771    2.1733  -18.3907 H   0  0  0  0  0  0  0  0  0  0  0  0
   -3.7437   -2.1620  -17.1949 H   0  0  0  0  0  0  0  0  0  0  0  0
   -4.6756   -3.5197  -15.3564 H   0  0  0  0  0  0  0  0  0  0  0  0
   -6.7514   -2.6602  -14.1455 H   0  0  0  0  0  0  0  0  0  0  0  0
  1  2  1  0
  2  3  1  0
  3  4  2  0
  4  5  1  0
  5  6  1  0
  6  7  2  0
  6  8  1  0
  8  9  1  0
  9 10  1  0
 10 11  2  0
 11 12  1  0
 12 13  1  0
 13 14  1  0
 14 15  1  0
 15 16  1  0
 16 17  1  0
 17 18  1  0
 17 19  1  0
 19 20  1  0
 12 21  2  0
 21 22  1  0
 22 23  1  0
 22 24  1  0
 22 25  1  0
 21 26  1  0
  5 27  2  0
 27 28  1  0
 28 29  1  0
 29 30  3  0
 30 31  1  0
 31 32  2  0
 32 33  1  0
 33 34  2  0
 34 35  1  0
 35 36  2  0
 36 37  1  0
 37 38  2  0
 38 39  1  0
 28  2  2  0
 39 31  1  0
 26  9  2  0
 39 34  1  0
 20 14  1  0
  1 40  1  0
  1 41  1  0
  1 42  1  0
  3 43  1  0
  4 44  1  0
  8 45  1  0
 10 46  1  0
 11 47  1  0
 13 48  1  0
 13 49  1  0
 15 50  1  0
 15 51  1  0
 16 52  1  0
 16 53  1  0
 18 54  1  0
 18 55  1  0
 18 56  1  0
 19 57  1  0
 19 58  1  0
 20 59  1  0
 20 60  1  0
 26 61  1  0
 27 62  1  0
 32 63  1  0
 35 64  1  0
 36 65  1  0
 37 66  1  0
M  END
>  <meeko>  (8) 
{"is_sidechain": false}

>  <vina_affinity_kcal_mol>  (8) 
-9.849

>  <pose_rank>  (8) 
8

$$$$

     RDKit          3D

 66 70  0  0  0  0  0  0  0  0999 V2000
   -7.6170    2.1900  -17.4220 C   0  0  0  0  0  0  0  0  0  0  0  0
   -8.5410    1.9070  -16.2690 C   0  0  0  0  0  0  0  0  0  0  0  0
   -8.5630    0.6230  -15.7020 C   0  0  0  0  0  0  0  0  0  0  0  0
   -9.4140    0.3330  -14.6330 C   0  0  0  0  0  0  0  0  0  0  0  0
  -10.2500    1.3240  -14.1090 C   0  0  0  0  0  0  0  0  0  0  0  0
  -11.1390    0.9750  -12.9660 C   0  0  0  0  0  0  0  0  0  0  0  0
  -12.1510    1.6430  -12.7940 O   0  0  0  0  0  0  0  0  0  0  0  0
  -10.7340   -0.1230  -12.2280 N   0  0  0  0  0  0  0  0  0  0  0  0
  -11.3510   -0.6560  -11.0760 C   0  0  0  0  0  0  0  0  0  0  0  0
  -11.6270    0.2300  -10.0330 C   0  0  0  0  0  0  0  0  0  0  0  0
  -12.2460   -0.2160   -8.8640 C   0  0  0  0  0  0  0  0  0  0  0  0
  -12.6100   -1.5630   -8.7070 C   0  0  0  0  0  0  0  0  0  0  0  0
  -13.2940   -1.9880   -7.4200 C   0  0  0  0  0  0  0  0  0  0  0  0
  -14.5150   -1.2260   -7.1580 N   0  0  0  0  0  0  0  0  0  0  0  0
  -14.7740   -0.9920   -5.7210 C   0  0  0  0  0  0  0  0  0  0  0  0
  -15.8590   -1.9130   -5.1190 C   0  0  0  0  0  0  0  0  0  0  0  0
  -17.1720   -1.7700   -5.7780 N   0  0  0  0  0  0  0  0  0  0  0  0
  -17.9850   -2.9660   -5.5820 C   0  0  0  0  0  0  0  0  0  0  0  0
  -17.0260   -1.4250   -7.2070 C   0  0  0  0  0  0  0  0  0  0  0  0
  -15.6760   -1.8540   -7.8200 C   0  0  0  0  0  0  0  0  0  0  0  0
  -12.3240   -2.4750   -9.7490 C   0  0  0  0  0  0  0  0  0  0  0  0
  -12.6830   -3.9480   -9.6730 C   0  0  0  0  0  0  0  0  0  0  0  0
  -14.0210   -4.1520   -9.4820 F   0  0  0  0  0  0  0  0  0  0  0  0
  -12.3940   -4.6460  -10.8100 F   0  0  0  0  0  0  0  0  0  0  0  0
  -12.0750   -4.6010   -8.6460 F   0  0  0  0  0  0  0  0  0  0  0  0
  -11.7070   -1.9970  -10.9280 C   0  0  0  0  0  0  0  0  0  0  0  0
  -10.2540    2.6010  -14.6810 C   0  0  0  0  0  0  0  0  0  0  0  0
   -9.3990    2.8940  -15.7530 C   0  0  0  0  0  0  0  0  0  0  0  0
   -9.4350    4.2180  -16.3020 C   0  0  0  0  0  0  0  0  0  0  0  0
   -9.4800    5.3310  -16.7500 C   0  0  0  0  0  0  0  0  0  0  0  0
   -9.5300    6.6420  -17.2910 C   0  0  0  0  0  0  0  0  0  0  0  0
   -9.5240    7.8460  -16.6240 C   0  0  0  0  0  0  0  0  0  0  0  0
   -9.5790    8.9040  -17.4990 N   0  0  0  0  0  0  0  0  0  0  0  0
   -9.6160    8.3540  -18.6950 C   0  0  0  0  0  0  0  0  0  0  0  0
   -9.6730    8.9370  -19.9810 C   0  0  0  0  0  0  0  0  0  0  0  0
   -9.7020    8.1460  -21.0600 C   0  0  0  0  0  0  0  0  0  0  0  0
   -9.6740    6.6810  -20.8260 C   0  0  0  0  0  0  0  0  0  0  0  0
   -9.6240    6.0860  -19.6770 N   0  0  0  0  0  0  0  0  0  0  0  0
   -9.5920    6.9670  -18.6260 N   0  0  0  0  0  0  0  0  0  0  0  0
   -6.6318    2.4917  -17.0368 H   0  0  0  0  0  0  0  0  0  0  0  0
   -7.5088    1.2838  -18.0361 H   0  0  0  0  0  0  0  0  0  0  0  0
   -8.0348    3.0014  -18.0361 H   0  0  0  0  0  0  0  0  0  0  0  0
   -7.9044   -0.1615  -16.1030 H   0  0  0  0  0  0  0  0  0  0  0  0
   -9.4266   -0.6788  -14.2017 H   0  0  0  0  0  0  0  0  0  0  0  0
   -9.9480   -0.6490  -12.5850 H   0  0  0  0  0  0  0  0  0  0  0  0
  -11.3538    1.2908  -10.1334 H   0  0  0  0  0  0  0  0  0  0  0  0
  -12.4517    0.4987   -8.0535 H   0  0  0  0  0  0  0  0  0  0  0  0
  -13.5524   -3.0547   -7.4932 H   0  0  0  0  0  0  0  0  0  0  0  0
  -12.5962   -1.7976   -6.5913 H   0  0  0  0  0  0  0  0  0  0  0  0
  -13.8364   -1.1559   -5.1695 H   0  0  0  0  0  0  0  0  0  0  0  0
  -15.1454    0.0393   -5.6287 H   0  0  0  0  0  0  0  0  0  0  0  0
  -15.5280   -2.9570   -5.2214 H   0  0  0  0  0  0  0  0  0  0  0  0
  -15.9877   -1.6226   -4.0659 H   0  0  0  0  0  0  0  0  0  0  0  0
  -18.1110   -3.1513   -4.5051 H   0  0  0  0  0  0  0  0  0  0  0  0
  -18.9712   -2.8192   -6.0466 H   0  0  0  0  0  0  0  0  0  0  0  0
  -17.4856   -3.8290   -6.0466 H   0  0  0  0  0  0  0  0  0  0  0  0
  -17.8333   -1.9199   -7.7668 H   0  0  0  0  0  0  0  0  0  0  0  0
  -17.0738   -0.3283   -7.2768 H   0  0  0  0  0  0  0  0  0  0  0  0
  -15.5819   -2.9463   -7.7304 H   0  0  0  0  0  0  0  0  0  0  0  0
  -15.6728   -1.5258   -8.8699 H   0  0  0  0  0  0  0  0  0  0  0  0
  -11.5025   -2.6999  -11.7491 H   0  0  0  0  0  0  0  0  0  0  0  0
  -10.9289    3.3762  -14.2891 H   0  0  0  0  0  0  0  0  0  0  0  0
   -9.4807    7.9482  -15.5296 H   0  0  0  0  0  0  0  0  0  0  0  0
   -9.6933   10.0310  -20.0941 H   0  0  0  0  0  0  0  0  0  0  0  0
   -9.7448    8.5638  -22.0766 H   0  0  0  0  0  0  0  0  0  0  0  0
   -9.6981    6.0364  -21.7170 H   0  0  0  0  0  0  0  0  0  0  0  0
  1  2  1  0
  2  3  1  0
  3  4  2  0
  4  5  1  0
  5  6  1  0
  6  7  2  0
  6  8  1  0
  8  9  1  0
  9 10  1  0
 10 11  2  0
 11 12  1  0
 12 13  1  0
 13 14  1  0
 14 15  1  0
 15 16  1  0
 16 17  1  0
 17 18  1  0
 17 19  1  0
 19 20  1  0
 12 21  2  0
 21 22  1  0
 22 23  1  0
 22 24  1  0
 22 25  1  0
 21 26  1  0
  5 27  2  0
 27 28  1  0
 28 29  1  0
 29 30  3  0
 30 31  1  0
 31 32  2  0
 32 33  1  0
 33 34  2  0
 34 35  1  0
 35 36  2  0
 36 37  1  0
 37 38  2  0
 38 39  1  0
 28  2  2  0
 39 31  1  0
 26  9  2  0
 39 34  1  0
 20 14  1  0
  1 40  1  0
  1 41  1  0
  1 42  1  0
  3 43  1  0
  4 44  1  0
  8 45  1  0
 10 46  1  0
 11 47  1  0
 13 48  1  0
 13 49  1  0
 15 50  1  0
 15 51  1  0
 16 52  1  0
 16 53  1  0
 18 54  1  0
 18 55  1  0
 18 56  1  0
 19 57  1  0
 19 58  1  0
 20 59  1  0
 20 60  1  0
 26 61  1  0
 27 62  1  0
 32 63  1  0
 35 64  1  0
 36 65  1  0
 37 66  1  0
M  END
>  <meeko>  (9) 
{"is_sidechain": false}

>  <vina_affinity_kcal_mol>  (9) 
-9.678

>  <pose_rank>  (9) 
9

$$$$

     RDKit          3D

 66 70  0  0  0  0  0  0  0  0999 V2000
   -9.8880    4.8770  -16.3830 C   0  0  0  0  0  0  0  0  0  0  0  0
  -10.5330    4.0950  -15.2710 C   0  0  0  0  0  0  0  0  0  0  0  0
  -11.7570    4.5320  -14.7410 C   0  0  0  0  0  0  0  0  0  0  0  0
  -12.3750    3.8270  -13.7050 C   0  0  0  0  0  0  0  0  0  0  0  0
  -11.7830    2.6710  -13.1890 C   0  0  0  0  0  0  0  0  0  0  0  0
  -12.4760    1.9450  -12.0890 C   0  0  0  0  0  0  0  0  0  0  0  0
  -13.6430    2.2320  -11.8500 O   0  0  0  0  0  0  0  0  0  0  0  0
  -11.7190    0.9690  -11.4670 N   0  0  0  0  0  0  0  0  0  0  0  0
  -12.0950    0.1560  -10.3760 C   0  0  0  0  0  0  0  0  0  0  0  0
  -11.9410    0.6940   -9.0970 C   0  0  0  0  0  0  0  0  0  0  0  0
  -12.3000   -0.0410   -7.9670 C   0  0  0  0  0  0  0  0  0  0  0  0
  -12.8310   -1.3360   -8.0850 C   0  0  0  0  0  0  0  0  0  0  0  0
  -13.2180   -2.0830   -6.8200 C   0  0  0  0  0  0  0  0  0  0  0  0
  -14.2500   -1.3850   -6.0530 N   0  0  0  0  0  0  0  0  0  0  0  0
  -14.6180   -2.0660   -4.7940 C   0  0  0  0  0  0  0  0  0  0  0  0
  -15.9520   -2.8410   -4.8640 C   0  0  0  0  0  0  0  0  0  0  0  0
  -17.1060   -1.9810   -5.1920 N   0  0  0  0  0  0  0  0  0  0  0  0
  -18.1940   -2.7670   -5.7660 C   0  0  0  0  0  0  0  0  0  0  0  0
  -16.7130   -0.8550   -6.0640 C   0  0  0  0  0  0  0  0  0  0  0  0
  -15.4370   -1.1200   -6.8910 C   0  0  0  0  0  0  0  0  0  0  0  0
  -12.9800   -1.8990   -9.3730 C   0  0  0  0  0  0  0  0  0  0  0  0
  -13.5480   -3.2880   -9.6010 C   0  0  0  0  0  0  0  0  0  0  0  0
  -14.8870   -3.3580   -9.3360 F   0  0  0  0  0  0  0  0  0  0  0  0
  -13.4350   -3.7270  -10.8880 F   0  0  0  0  0  0  0  0  0  0  0  0
  -12.9800   -4.2410   -8.8110 F   0  0  0  0  0  0  0  0  0  0  0  0
  -12.6200   -1.1310  -10.5030 C   0  0  0  0  0  0  0  0  0  0  0  0
  -10.5510    2.2390  -13.6930 C   0  0  0  0  0  0  0  0  0  0  0  0
   -9.9300    2.9440  -14.7340 C   0  0  0  0  0  0  0  0  0  0  0  0
   -8.6720    2.4600  -15.2210 C   0  0  0  0  0  0  0  0  0  0  0  0
   -7.6180    2.0400  -15.6150 C   0  0  0  0  0  0  0  0  0  0  0  0
   -6.3760    1.5320  -16.0760 C   0  0  0  0  0  0  0  0  0  0  0  0
   -5.2890    2.2280  -16.5530 C   0  0  0  0  0  0  0  0  0  0  0  0
   -4.2640    1.3810  -16.9000 N   0  0  0  0  0  0  0  0  0  0  0  0
   -4.7170    0.1740  -16.6340 C   0  0  0  0  0  0  0  0  0  0  0  0
   -4.1120   -1.0950  -16.7800 C   0  0  0  0  0  0  0  0  0  0  0  0
   -4.7960   -2.1920  -16.4330 C   0  0  0  0  0  0  0  0  0  0  0  0
   -6.1710   -1.9960  -15.9110 C   0  0  0  0  0  0  0  0  0  0  0  0
   -6.7810   -0.8650  -15.7570 N   0  0  0  0  0  0  0  0  0  0  0  0
   -6.0110    0.2070  -16.1300 N   0  0  0  0  0  0  0  0  0  0  0  0
   -9.2431    5.6588  -15.9553 H   0  0  0  0  0  0  0  0  0  0  0  0
   -9.2818    4.2004  -17.0033 H   0  0  0  0  0  0  0  0  0  0  0  0
  -10.6675    5.3434  -17.0033 H   0  0  0  0  0  0  0  0  0  0  0  0
  -12.2338    5.4373  -15.1447 H   0  0  0  0  0  0  0  0  0  0  0  0
  -13.3311    4.1832  -13.2940 H   0  0  0  0  0  0  0  0  0  0  0  0
  -10.8170    0.7610  -11.8750 H   0  0  0  0  0  0  0  0  0  0  0  0
  -11.5322    1.7084   -8.9790 H   0  0  0  0  0  0  0  0  0  0  0  0
  -12.1652    0.4003   -6.9684 H   0  0  0  0  0  0  0  0  0  0  0  0
  -13.5971   -3.0772   -7.0990 H   0  0  0  0  0  0  0  0  0  0  0  0
  -12.3217   -2.1562   -6.1866 H   0  0  0  0  0  0  0  0  0  0  0  0
  -13.8182   -2.7769   -4.5391 H   0  0  0  0  0  0  0  0  0  0  0  0
  -14.7462   -1.2811   -4.0341 H   0  0  0  0  0  0  0  0  0  0  0  0
  -15.8646   -3.6189   -5.6368 H   0  0  0  0  0  0  0  0  0  0  0  0
  -16.1351   -3.2686   -3.8672 H   0  0  0  0  0  0  0  0  0  0  0  0
  -18.7978   -3.2032   -4.9566 H   0  0  0  0  0  0  0  0  0  0  0  0
  -18.8280   -2.1170   -6.3870 H   0  0  0  0  0  0  0  0  0  0  0  0
  -17.7761   -3.5731   -6.3870 H   0  0  0  0  0  0  0  0  0  0  0  0
  -17.5403   -0.6506   -6.7596 H   0  0  0  0  0  0  0  0  0  0  0  0
  -16.4947   -0.0019   -5.4048 H   0  0  0  0  0  0  0  0  0  0  0  0
  -15.6126   -1.9936   -7.5360 H   0  0  0  0  0  0  0  0  0  0  0  0
  -15.2301   -0.2119   -7.4763 H   0  0  0  0  0  0  0  0  0  0  0  0
  -12.7568   -1.5579  -11.5075 H   0  0  0  0  0  0  0  0  0  0  0  0
  -10.0688    1.3446  -13.2717 H   0  0  0  0  0  0  0  0  0  0  0  0
   -5.2460    3.3233  -16.6449 H   0  0  0  0  0  0  0  0  0  0  0  0
   -3.0889   -1.1803  -17.1750 H   0  0  0  0  0  0  0  0  0  0  0  0
   -4.3574   -3.1960  -16.5307 H   0  0  0  0  0  0  0  0  0  0  0  0
   -6.7269   -2.9016  -15.6268 H   0  0  0  0  0  0  0  0  0  0  0  0
  1  2  1  0
  2  3  1  0
  3  4  2  0
  4  5  1  0
  5  6  1  0
  6  7  2  0
  6  8  1  0
  8  9  1  0
  9 10  1  0
 10 11  2  0
 11 12  1  0
 12 13  1  0
 13 14  1  0
 14 15  1  0
 15 16  1  0
 16 17  1  0
 17 18  1  0
 17 19  1  0
 19 20  1  0
 12 21  2  0
 21 22  1  0
 22 23  1  0
 22 24  1  0
 22 25  1  0
 21 26  1  0
  5 27  2  0
 27 28  1  0
 28 29  1  0
 29 30  3  0
 30 31  1  0
 31 32  2  0
 32 33  1  0
 33 34  2  0
 34 35  1  0
 35 36  2  0
 36 37  1  0
 37 38  2  0
 38 39  1  0
 28  2  2  0
 39 31  1  0
 26  9  2  0
 39 34  1  0
 20 14  1  0
  1 40  1  0
  1 41  1  0
  1 42  1  0
  3 43  1  0
  4 44  1  0
  8 45  1  0
 10 46  1  0
 11 47  1  0
 13 48  1  0
 13 49  1  0
 15 50  1  0
 15 51  1  0
 16 52  1  0
 16 53  1  0
 18 54  1  0
 18 55  1  0
 18 56  1  0
 19 57  1  0
 19 58  1  0
 20 59  1  0
 20 60  1  0
 26 61  1  0
 27 62  1  0
 32 63  1  0
 35 64  1  0
 36 65  1  0
 37 66  1  0
M  END
>  <meeko>  (10) 
{"is_sidechain": false}

>  <vina_affinity_kcal_mol>  (10) 
-9.634

>  <pose_rank>  (10) 
10

$$$$
