
     RDKit          3D

 48 50  0  0  0  0  0  0  0  0999 V2000
  -20.0500   -0.2370   -6.4450 C   0  0  0  0  0  0  0  0  0  0  0  0
  -18.6870   -0.6640   -6.5950 N   0  0  0  0  0  0  0  0  0  0  0  0
  -17.6780   -0.2300   -5.7620 C   0  0  0  0  0  0  0  0  0  0  0  0
  -17.8540    0.4750   -4.7760 O   0  0  0  0  0  0  0  0  0  0  0  0
  -16.3070   -0.6830   -6.1690 C   0  0  0  0  0  0  0  0  0  0  0  0
  -16.0560   -1.0110   -7.4910 C   0  0  0  0  0  0  0  0  0  0  0  0
  -14.7770   -1.4430   -7.8120 C   0  0  0  0  0  0  0  0  0  0  0  0
  -14.5260   -1.7350   -9.1340 O   0  0  0  0  0  0  0  0  0  0  0  0
  -13.6270   -0.9260   -9.7890 C   0  0  0  0  0  0  0  0  0  0  0  0
  -14.0600    0.3400  -10.1710 C   0  0  0  0  0  0  0  0  0  0  0  0
  -13.1990    1.1960  -10.8670 C   0  0  0  0  0  0  0  0  0  0  0  0
  -11.9070    0.7820  -11.2040 C   0  0  0  0  0  0  0  0  0  0  0  0
  -10.9760    1.5840  -11.8970 N   0  0  0  0  0  0  0  0  0  0  0  0
  -10.9810    1.9130  -13.2460 C   0  0  0  0  0  0  0  0  0  0  0  0
  -11.7740    1.4830  -14.0730 O   0  0  0  0  0  0  0  0  0  0  0  0
   -9.9560    2.8080  -13.5230 N   0  0  0  0  0  0  0  0  0  0  0  0
   -9.5650    3.2980  -14.7860 C   0  0  0  0  0  0  0  0  0  0  0  0
   -8.4330    2.8680  -15.4750 C   0  0  0  0  0  0  0  0  0  0  0  0
   -8.1120    3.4140  -16.7210 C   0  0  0  0  0  0  0  0  0  0  0  0
   -8.9180    4.4000  -17.2940 C   0  0  0  0  0  0  0  0  0  0  0  0
   -8.4520    5.0200  -18.8350 Cl  0  0  0  0  0  0  0  0  0  0  0  0
  -10.0560    4.8550  -16.6220 C   0  0  0  0  0  0  0  0  0  0  0  0
  -10.9430    5.9180  -17.2080 C   0  0  0  0  0  0  0  0  0  0  0  0
  -10.3150    7.1150  -17.3630 F   0  0  0  0  0  0  0  0  0  0  0  0
  -11.4500    5.5830  -18.4260 F   0  0  0  0  0  0  0  0  0  0  0  0
  -12.0330    6.1840  -16.4280 F   0  0  0  0  0  0  0  0  0  0  0  0
  -10.3650    4.2930  -15.3640 C   0  0  0  0  0  0  0  0  0  0  0  0
  -11.4900   -0.5040  -10.8300 C   0  0  0  0  0  0  0  0  0  0  0  0
  -12.3470   -1.3590  -10.1330 C   0  0  0  0  0  0  0  0  0  0  0  0
  -13.7890   -1.5000   -6.8300 C   0  0  0  0  0  0  0  0  0  0  0  0
  -14.1370   -1.1490   -5.5370 C   0  0  0  0  0  0  0  0  0  0  0  0
  -15.3740   -0.7490   -5.1750 N   0  0  0  0  0  0  0  0  0  0  0  0
  -20.2946   -0.1604   -5.3753 H   0  0  0  0  0  0  0  0  0  0  0  0
  -20.1812    0.7453   -6.9224 H   0  0  0  0  0  0  0  0  0  0  0  0
  -20.7182   -0.9689   -6.9224 H   0  0  0  0  0  0  0  0  0  0  0  0
  -18.3910   -1.1590   -7.4340 H   0  0  0  0  0  0  0  0  0  0  0  0
  -16.8409   -0.9320   -8.2576 H   0  0  0  0  0  0  0  0  0  0  0  0
  -15.0807    0.6685   -9.9255 H   0  0  0  0  0  0  0  0  0  0  0  0
  -13.5414    2.2020  -11.1510 H   0  0  0  0  0  0  0  0  0  0  0  0
  -10.1470    1.8340  -11.3830 H   0  0  0  0  0  0  0  0  0  0  0  0
   -9.5400    3.2590  -12.7230 H   0  0  0  0  0  0  0  0  0  0  0  0
   -7.7874    2.0935  -15.0354 H   0  0  0  0  0  0  0  0  0  0  0  0
   -7.2164    3.0639  -17.2551 H   0  0  0  0  0  0  0  0  0  0  0  0
  -11.2563    4.6451  -14.8240 H   0  0  0  0  0  0  0  0  0  0  0  0
  -10.4761   -0.8432  -11.0886 H   0  0  0  0  0  0  0  0  0  0  0  0
  -12.0133   -2.3701   -9.8566 H   0  0  0  0  0  0  0  0  0  0  0  0
  -12.7638   -1.8144   -7.0753 H   0  0  0  0  0  0  0  0  0  0  0  0
  -13.3603   -1.1990   -4.7596 H   0  0  0  0  0  0  0  0  0  0  0  0
  1  2  1  0
  2  3  1  0
  3  4  2  0
  3  5  1  0
  5  6  2  0
  6  7  1  0
  7  8  1  0
  8  9  1  0
  9 10  1  0
 10 11  2  0
 11 12  1  0
 12 13  1  0
 13 14  1  0
 14 15  2  0
 14 16  1  0
 16 17  1  0
 17 18  1  0
 18 19  2  0
 19 20  1  0
 20 21  1  0
 20 22  2  0
 22 23  1  0
 23 24  1  0
 23 25  1  0
 23 26  1  0
 22 27  1  0
 12 28  2  0
 28 29  1  0
  7 30  2  0
 30 31  1  0
 31 32  2  0
 32  5  1  0
 29  9  2  0
 27 17  2  0
  1 33  1  0
  1 34  1  0
  1 35  1  0
  2 36  1  0
  6 37  1  0
 10 38  1  0
 11 39  1  0
 13 40  1  0
 16 41  1  0
 18 42  1  0
 19 43  1  0
 27 44  1  0
 28 45  1  0
 29 46  1  0
 30 47  1  0
 31 48  1  0
M  END
>  <meeko>  (1) 
{"is_sidechain": false}

>  <vina_affinity_kcal_mol>  (1) 
-8.868

>  <pose_rank>  (1) 
1

$$$$

     RDKit          3D

 48 50  0  0  0  0  0  0  0  0999 V2000
   -6.9590   -0.4280   -7.3100 C   0  0  0  0  0  0  0  0  0  0  0  0
   -6.6930   -0.4770   -8.7210 N   0  0  0  0  0  0  0  0  0  0  0  0
   -5.6800   -1.2420   -9.2580 C   0  0  0  0  0  0  0  0  0  0  0  0
   -4.9780   -2.0090   -8.6100 O   0  0  0  0  0  0  0  0  0  0  0  0
   -5.4800   -1.0500  -10.7320 C   0  0  0  0  0  0  0  0  0  0  0  0
   -6.5080   -1.3520  -11.6090 C   0  0  0  0  0  0  0  0  0  0  0  0
   -6.2660   -1.1750  -12.9650 C   0  0  0  0  0  0  0  0  0  0  0  0
   -7.3040   -1.4450  -13.8280 O   0  0  0  0  0  0  0  0  0  0  0  0
   -7.9250   -0.3650  -14.4090 C   0  0  0  0  0  0  0  0  0  0  0  0
   -7.8460   -0.2450  -15.7940 C   0  0  0  0  0  0  0  0  0  0  0  0
   -8.4330    0.8490  -16.4380 C   0  0  0  0  0  0  0  0  0  0  0  0
   -9.0830    1.8420  -15.7000 C   0  0  0  0  0  0  0  0  0  0  0  0
   -9.7050    2.9720  -16.2710 N   0  0  0  0  0  0  0  0  0  0  0  0
   -9.0930    4.0520  -16.8940 C   0  0  0  0  0  0  0  0  0  0  0  0
   -7.8850    4.2240  -16.9760 O   0  0  0  0  0  0  0  0  0  0  0  0
  -10.0530    4.9080  -17.4180 N   0  0  0  0  0  0  0  0  0  0  0  0
   -9.8400    6.1610  -18.0290 C   0  0  0  0  0  0  0  0  0  0  0  0
   -9.3720    7.2880  -17.3580 C   0  0  0  0  0  0  0  0  0  0  0  0
   -9.1970    8.4960  -18.0400 C   0  0  0  0  0  0  0  0  0  0  0  0
   -9.4920    8.5940  -19.4010 C   0  0  0  0  0  0  0  0  0  0  0  0
   -9.2480   10.1210  -20.1660 Cl  0  0  0  0  0  0  0  0  0  0  0  0
   -9.9690    7.4800  -20.0970 C   0  0  0  0  0  0  0  0  0  0  0  0
  -10.3000    7.5510  -21.5630 C   0  0  0  0  0  0  0  0  0  0  0  0
  -11.2830    8.4470  -21.8470 F   0  0  0  0  0  0  0  0  0  0  0  0
   -9.2320    7.8850  -22.3380 F   0  0  0  0  0  0  0  0  0  0  0  0
  -10.7460    6.3600  -22.0610 F   0  0  0  0  0  0  0  0  0  0  0  0
  -10.1400    6.2680  -19.3950 C   0  0  0  0  0  0  0  0  0  0  0  0
   -9.1390    1.7200  -14.3030 C   0  0  0  0  0  0  0  0  0  0  0  0
   -8.5560    0.6260  -13.6580 C   0  0  0  0  0  0  0  0  0  0  0  0
   -5.0390   -0.6770  -13.3980 C   0  0  0  0  0  0  0  0  0  0  0  0
   -4.0740   -0.4030  -12.4440 C   0  0  0  0  0  0  0  0  0  0  0  0
   -4.2570   -0.5840  -11.1190 N   0  0  0  0  0  0  0  0  0  0  0  0
   -6.0252   -0.6000   -6.7546 H   0  0  0  0  0  0  0  0  0  0  0  0
   -7.3650    0.5601   -7.0475 H   0  0  0  0  0  0  0  0  0  0  0  0
   -7.6904   -1.2065   -7.0475 H   0  0  0  0  0  0  0  0  0  0  0  0
   -7.1290    0.1920   -9.3510 H   0  0  0  0  0  0  0  0  0  0  0  0
   -7.4795   -1.7182  -11.2455 H   0  0  0  0  0  0  0  0  0  0  0  0
   -7.3211   -1.0118  -16.3826 H   0  0  0  0  0  0  0  0  0  0  0  0
   -8.3827    0.9285  -17.5340 H   0  0  0  0  0  0  0  0  0  0  0  0
  -10.6920    3.0670  -16.0890 H   0  0  0  0  0  0  0  0  0  0  0  0
  -10.9840    4.5290  -17.4920 H   0  0  0  0  0  0  0  0  0  0  0  0
   -9.1386    7.2275  -16.2848 H   0  0  0  0  0  0  0  0  0  0  0  0
   -8.8232    9.3777  -17.4989 H   0  0  0  0  0  0  0  0  0  0  0  0
  -10.5178    5.3855  -19.9321 H   0  0  0  0  0  0  0  0  0  0  0  0
   -9.6474    2.4940  -13.7093 H   0  0  0  0  0  0  0  0  0  0  0  0
   -8.5947    0.5469  -12.5615 H   0  0  0  0  0  0  0  0  0  0  0  0
   -4.8427   -0.5065  -14.4668 H   0  0  0  0  0  0  0  0  0  0  0  0
   -3.1026   -0.0157  -12.7852 H   0  0  0  0  0  0  0  0  0  0  0  0
  1  2  1  0
  2  3  1  0
  3  4  2  0
  3  5  1  0
  5  6  2  0
  6  7  1  0
  7  8  1  0
  8  9  1  0
  9 10  1  0
 10 11  2  0
 11 12  1  0
 12 13  1  0
 13 14  1  0
 14 15  2  0
 14 16  1  0
 16 17  1  0
 17 18  1  0
 18 19  2  0
 19 20  1  0
 20 21  1  0
 20 22  2  0
 22 23  1  0
 23 24  1  0
 23 25  1  0
 23 26  1  0
 22 27  1  0
 12 28  2  0
 28 29  1  0
  7 30  2  0
 30 31  1  0
 31 32  2  0
 32  5  1  0
 29  9  2  0
 27 17  2  0
  1 33  1  0
  1 34  1  0
  1 35  1  0
  2 36  1  0
  6 37  1  0
 10 38  1  0
 11 39  1  0
 13 40  1  0
 16 41  1  0
 18 42  1  0
 19 43  1  0
 27 44  1  0
 28 45  1  0
 29 46  1  0
 30 47  1  0
 31 48  1  0
M  END
>  <meeko>  (2) 
{"is_sidechain": false}

>  <vina_affinity_kcal_mol>  (2) 
-8.638

>  <pose_rank>  (2) 
2

$$$$

     RDKit          3D

 48 50  0  0  0  0  0  0  0  0999 V2000
   -4.9160   -7.0600  -16.1340 C   0  0  0  0  0  0  0  0  0  0  0  0
   -5.0510   -5.6660  -15.8150 N   0  0  0  0  0  0  0  0  0  0  0  0
   -4.0530   -4.7480  -16.0680 C   0  0  0  0  0  0  0  0  0  0  0  0
   -3.0130   -5.0080  -16.6600 O   0  0  0  0  0  0  0  0  0  0  0  0
   -4.3340   -3.3740  -15.5380 C   0  0  0  0  0  0  0  0  0  0  0  0
   -5.5950   -3.0680  -15.0540 C   0  0  0  0  0  0  0  0  0  0  0  0
   -5.8090   -1.7770  -14.5930 C   0  0  0  0  0  0  0  0  0  0  0  0
   -7.0550   -1.4900  -14.0820 O   0  0  0  0  0  0  0  0  0  0  0  0
   -7.7070   -0.4010  -14.6100 C   0  0  0  0  0  0  0  0  0  0  0  0
   -7.8780   -0.3600  -15.9910 C   0  0  0  0  0  0  0  0  0  0  0  0
   -8.5070    0.7380  -16.5880 C   0  0  0  0  0  0  0  0  0  0  0  0
   -8.9490    1.8110  -15.8100 C   0  0  0  0  0  0  0  0  0  0  0  0
   -9.5970    2.9510  -16.3320 N   0  0  0  0  0  0  0  0  0  0  0  0
   -9.0120    4.0510  -16.9450 C   0  0  0  0  0  0  0  0  0  0  0  0
   -7.8090    4.2360  -17.0600 O   0  0  0  0  0  0  0  0  0  0  0  0
   -9.9950    4.9130  -17.4160 N   0  0  0  0  0  0  0  0  0  0  0  0
   -9.8100    6.1830  -18.0010 C   0  0  0  0  0  0  0  0  0  0  0  0
   -9.3770    7.3080  -17.3030 C   0  0  0  0  0  0  0  0  0  0  0  0
   -9.2290    8.5340  -17.9590 C   0  0  0  0  0  0  0  0  0  0  0  0
   -9.5160    8.6510  -19.3210 C   0  0  0  0  0  0  0  0  0  0  0  0
   -9.3070   10.1990  -20.0530 Cl  0  0  0  0  0  0  0  0  0  0  0  0
   -9.9600    7.5400  -20.0420 C   0  0  0  0  0  0  0  0  0  0  0  0
  -10.2820    7.6330  -21.5080 C   0  0  0  0  0  0  0  0  0  0  0  0
   -9.2300    8.0540  -22.2620 F   0  0  0  0  0  0  0  0  0  0  0  0
  -10.6970    6.4520  -22.0430 F   0  0  0  0  0  0  0  0  0  0  0  0
  -11.2890    8.5180  -21.7720 F   0  0  0  0  0  0  0  0  0  0  0  0
  -10.1040    6.3100  -19.3650 C   0  0  0  0  0  0  0  0  0  0  0  0
   -8.7530    1.7670  -14.4220 C   0  0  0  0  0  0  0  0  0  0  0  0
   -8.1280    0.6700  -13.8230 C   0  0  0  0  0  0  0  0  0  0  0  0
   -4.7670   -0.8510  -14.5930 C   0  0  0  0  0  0  0  0  0  0  0  0
   -3.5410   -1.2520  -15.0950 C   0  0  0  0  0  0  0  0  0  0  0  0
   -3.2960   -2.4890  -15.5780 N   0  0  0  0  0  0  0  0  0  0  0  0
   -4.8593   -7.6451  -15.2042 H   0  0  0  0  0  0  0  0  0  0  0  0
   -5.7866   -7.3878  -16.7210 H   0  0  0  0  0  0  0  0  0  0  0  0
   -3.9987   -7.2146  -16.7210 H   0  0  0  0  0  0  0  0  0  0  0  0
   -5.8150   -5.3430  -15.2270 H   0  0  0  0  0  0  0  0  0  0  0  0
   -6.3971   -3.8205  -15.0357 H   0  0  0  0  0  0  0  0  0  0  0  0
   -7.5180   -1.1922  -16.6138 H   0  0  0  0  0  0  0  0  0  0  0  0
   -8.6546    0.7566  -17.6779 H   0  0  0  0  0  0  0  0  0  0  0  0
  -10.5780    3.0330  -16.1160 H   0  0  0  0  0  0  0  0  0  0  0  0
  -10.9250    4.5290  -17.4700 H   0  0  0  0  0  0  0  0  0  0  0  0
   -9.1501    7.2315  -16.2294 H   0  0  0  0  0  0  0  0  0  0  0  0
   -8.8834    9.4144  -17.3973 H   0  0  0  0  0  0  0  0  0  0  0  0
  -10.4558    5.4292  -19.9221 H   0  0  0  0  0  0  0  0  0  0  0  0
   -9.0951    2.6056  -13.7977 H   0  0  0  0  0  0  0  0  0  0  0  0
   -7.9688    0.6516  -12.7347 H   0  0  0  0  0  0  0  0  0  0  0  0
   -4.9147    0.1679  -14.2056 H   0  0  0  0  0  0  0  0  0  0  0  0
   -2.7190   -0.5210  -15.1008 H   0  0  0  0  0  0  0  0  0  0  0  0
  1  2  1  0
  2  3  1  0
  3  4  2  0
  3  5  1  0
  5  6  2  0
  6  7  1  0
  7  8  1  0
  8  9  1  0
  9 10  1  0
 10 11  2  0
 11 12  1  0
 12 13  1  0
 13 14  1  0
 14 15  2  0
 14 16  1  0
 16 17  1  0
 17 18  1  0
 18 19  2  0
 19 20  1  0
 20 21  1  0
 20 22  2  0
 22 23  1  0
 23 24  1  0
 23 25  1  0
 23 26  1  0
 22 27  1  0
 12 28  2  0
 28 29  1  0
  7 30  2  0
 30 31  1  0
 31 32  2  0
 32  5  1  0
 29  9  2  0
 27 17  2  0
  1 33  1  0
  1 34  1  0
  1 35  1  0
  2 36  1  0
  6 37  1  0
 10 38  1  0
 11 39  1  0
 13 40  1  0
 16 41  1  0
 18 42  1  0
 19 43  1  0
 27 44  1  0
 28 45  1  0
 29 46  1  0
 30 47  1  0
 31 48  1  0
M  END
>  <meeko>  (3) 
{"is_sidechain": false}

>  <vina_affinity_kcal_mol>  (3) 
-8.629

>  <pose_rank>  (3) 
3

$$$$

     RDKit          3D

 48 50  0  0  0  0  0  0  0  0999 V2000
   -0.8140   -0.4690  -10.6590 C   0  0  0  0  0  0  0  0  0  0  0  0
   -1.7860   -0.6930  -11.6940 N   0  0  0  0  0  0  0  0  0  0  0  0
   -3.1400   -0.5350  -11.4850 C   0  0  0  0  0  0  0  0  0  0  0  0
   -3.6320   -0.1110  -10.4470 O   0  0  0  0  0  0  0  0  0  0  0  0
   -3.9930   -0.9490  -12.6470 C   0  0  0  0  0  0  0  0  0  0  0  0
   -5.3730   -0.8950  -12.5410 C   0  0  0  0  0  0  0  0  0  0  0  0
   -6.1170   -1.3070  -13.6370 C   0  0  0  0  0  0  0  0  0  0  0  0
   -7.4870   -1.2190  -13.5360 O   0  0  0  0  0  0  0  0  0  0  0  0
   -8.0880   -0.1500  -14.1570 C   0  0  0  0  0  0  0  0  0  0  0  0
   -8.0890   -0.1320  -15.5490 C   0  0  0  0  0  0  0  0  0  0  0  0
   -8.6600    0.9450  -16.2360 C   0  0  0  0  0  0  0  0  0  0  0  0
   -9.2120    2.0200  -15.5360 C   0  0  0  0  0  0  0  0  0  0  0  0
   -9.8120    3.1390  -16.1520 N   0  0  0  0  0  0  0  0  0  0  0  0
   -9.1760    4.1990  -16.7860 C   0  0  0  0  0  0  0  0  0  0  0  0
   -7.9650    4.3610  -16.8410 O   0  0  0  0  0  0  0  0  0  0  0  0
  -10.1160    5.0480  -17.3560 N   0  0  0  0  0  0  0  0  0  0  0  0
   -9.8780    6.2830  -17.9930 C   0  0  0  0  0  0  0  0  0  0  0  0
   -9.4000    7.4180  -17.3430 C   0  0  0  0  0  0  0  0  0  0  0  0
   -9.2000    8.6080  -18.0500 C   0  0  0  0  0  0  0  0  0  0  0  0
   -9.4810    8.6790  -19.4150 C   0  0  0  0  0  0  0  0  0  0  0  0
   -9.2070   10.1840  -20.2120 Cl  0  0  0  0  0  0  0  0  0  0  0  0
   -9.9700    7.5570  -20.0910 C   0  0  0  0  0  0  0  0  0  0  0  0
  -10.2860    7.6010  -21.5600 C   0  0  0  0  0  0  0  0  0  0  0  0
  -11.2900    8.4660  -21.8670 F   0  0  0  0  0  0  0  0  0  0  0  0
   -9.2200    7.9530  -22.3290 F   0  0  0  0  0  0  0  0  0  0  0  0
  -10.6940    6.3910  -22.0480 F   0  0  0  0  0  0  0  0  0  0  0  0
  -10.1650    6.3640  -19.3630 C   0  0  0  0  0  0  0  0  0  0  0  0
   -9.1880    1.9990  -14.1340 C   0  0  0  0  0  0  0  0  0  0  0  0
   -8.6210    0.9230  -13.4450 C   0  0  0  0  0  0  0  0  0  0  0  0
   -5.4760   -1.7200  -14.8040 C   0  0  0  0  0  0  0  0  0  0  0  0
   -4.0920   -1.7370  -14.8150 C   0  0  0  0  0  0  0  0  0  0  0  0
   -3.3290   -1.3700  -13.7630 N   0  0  0  0  0  0  0  0  0  0  0  0
   -1.2937   -0.5796   -9.6753 H   0  0  0  0  0  0  0  0  0  0  0  0
   -0.0005   -1.2032  -10.7548 H   0  0  0  0  0  0  0  0  0  0  0  0
   -0.4039    0.5472  -10.7548 H   0  0  0  0  0  0  0  0  0  0  0  0
   -1.5190   -1.1510  -12.5620 H   0  0  0  0  0  0  0  0  0  0  0  0
   -5.8609   -0.5386  -11.6218 H   0  0  0  0  0  0  0  0  0  0  0  0
   -7.6404   -0.9654  -16.1095 H   0  0  0  0  0  0  0  0  0  0  0  0
   -8.6742    0.9449  -17.3359 H   0  0  0  0  0  0  0  0  0  0  0  0
  -10.8020    3.2450  -15.9970 H   0  0  0  0  0  0  0  0  0  0  0  0
  -11.0480    4.6730  -17.4440 H   0  0  0  0  0  0  0  0  0  0  0  0
   -9.1782    7.3783  -16.2663 H   0  0  0  0  0  0  0  0  0  0  0  0
   -8.8177    9.4960  -17.5253 H   0  0  0  0  0  0  0  0  0  0  0  0
  -10.5518    5.4754  -19.8833 H   0  0  0  0  0  0  0  0  0  0  0  0
   -9.6202    2.8387  -13.5701 H   0  0  0  0  0  0  0  0  0  0  0  0
   -8.5956    0.9232  -12.3453 H   0  0  0  0  0  0  0  0  0  0  0  0
   -6.0531   -2.0234  -15.6900 H   0  0  0  0  0  0  0  0  0  0  0  0
   -3.5847   -2.0684  -15.7331 H   0  0  0  0  0  0  0  0  0  0  0  0
  1  2  1  0
  2  3  1  0
  3  4  2  0
  3  5  1  0
  5  6  2  0
  6  7  1  0
  7  8  1  0
  8  9  1  0
  9 10  1  0
 10 11  2  0
 11 12  1  0
 12 13  1  0
 13 14  1  0
 14 15  2  0
 14 16  1  0
 16 17  1  0
 17 18  1  0
 18 19  2  0
 19 20  1  0
 20 21  1  0
 20 22  2  0
 22 23  1  0
 23 24  1  0
 23 25  1  0
 23 26  1  0
 22 27  1  0
 12 28  2  0
 28 29  1  0
  7 30  2  0
 30 31  1  0
 31 32  2  0
 32  5  1  0
 29  9  2  0
 27 17  2  0
  1 33  1  0
  1 34  1  0
  1 35  1  0
  2 36  1  0
  6 37  1  0
 10 38  1  0
 11 39  1  0
 13 40  1  0
 16 41  1  0
 18 42  1  0
 19 43  1  0
 27 44  1  0
 28 45  1  0
 29 46  1  0
 30 47  1  0
 31 48  1  0
M  END
>  <meeko>  (4) 
{"is_sidechain": false}

>  <vina_affinity_kcal_mol>  (4) 
-8.567

>  <pose_rank>  (4) 
4

$$$$

     RDKit          3D

 48 50  0  0  0  0  0  0  0  0999 V2000
   -2.8500    0.1460  -19.3940 C   0  0  0  0  0  0  0  0  0  0  0  0
   -3.6330   -0.5750  -18.4300 N   0  0  0  0  0  0  0  0  0  0  0  0
   -3.2860   -0.6460  -17.0970 C   0  0  0  0  0  0  0  0  0  0  0  0
   -2.3470   -0.0400  -16.5970 O   0  0  0  0  0  0  0  0  0  0  0  0
   -4.1550   -1.5580  -16.2840 C   0  0  0  0  0  0  0  0  0  0  0  0
   -5.1920   -1.0300  -15.5320 C   0  0  0  0  0  0  0  0  0  0  0  0
   -5.9540   -1.9140  -14.7820 C   0  0  0  0  0  0  0  0  0  0  0  0
   -7.0040   -1.3860  -14.0640 O   0  0  0  0  0  0  0  0  0  0  0  0
   -7.6190   -0.2750  -14.5920 C   0  0  0  0  0  0  0  0  0  0  0  0
   -7.8290    0.8090  -13.7430 C   0  0  0  0  0  0  0  0  0  0  0  0
   -8.4780    1.9540  -14.2150 C   0  0  0  0  0  0  0  0  0  0  0  0
   -8.9410    2.0160  -15.5320 C   0  0  0  0  0  0  0  0  0  0  0  0
   -9.5980    3.1340  -16.0870 N   0  0  0  0  0  0  0  0  0  0  0  0
   -9.0250    4.2030  -16.7630 C   0  0  0  0  0  0  0  0  0  0  0  0
   -7.8240    4.3770  -16.9160 O   0  0  0  0  0  0  0  0  0  0  0  0
  -10.0150    5.0480  -17.2470 N   0  0  0  0  0  0  0  0  0  0  0  0
   -9.8410    6.2900  -17.8920 C   0  0  0  0  0  0  0  0  0  0  0  0
   -9.4240    7.4530  -17.2480 C   0  0  0  0  0  0  0  0  0  0  0  0
   -9.2850    8.6470  -17.9620 C   0  0  0  0  0  0  0  0  0  0  0  0
   -9.5650    8.6940  -19.3290 C   0  0  0  0  0  0  0  0  0  0  0  0
   -9.3680   10.2070  -20.1350 Cl  0  0  0  0  0  0  0  0  0  0  0  0
   -9.9920    7.5440  -19.9980 C   0  0  0  0  0  0  0  0  0  0  0  0
  -10.3060    7.5610  -21.4690 C   0  0  0  0  0  0  0  0  0  0  0  0
  -10.7100    6.3520  -21.9450 F   0  0  0  0  0  0  0  0  0  0  0  0
  -11.2780    8.4550  -21.8010 F   0  0  0  0  0  0  0  0  0  0  0  0
   -9.2270    7.9040  -22.2340 F   0  0  0  0  0  0  0  0  0  0  0  0
  -10.1280    6.3470  -19.2630 C   0  0  0  0  0  0  0  0  0  0  0  0
   -8.7410    0.9100  -16.3720 C   0  0  0  0  0  0  0  0  0  0  0  0
   -8.0900   -0.2350  -15.9030 C   0  0  0  0  0  0  0  0  0  0  0  0
   -5.6900   -3.2820  -14.8280 C   0  0  0  0  0  0  0  0  0  0  0  0
   -4.6330   -3.7140  -15.6110 C   0  0  0  0  0  0  0  0  0  0  0  0
   -3.8490   -2.8870  -16.3360 N   0  0  0  0  0  0  0  0  0  0  0  0
   -2.1379    0.8017  -18.8714 H   0  0  0  0  0  0  0  0  0  0  0  0
   -2.2978   -0.5664  -20.0245 H   0  0  0  0  0  0  0  0  0  0  0  0
   -3.5145    0.7550  -20.0245 H   0  0  0  0  0  0  0  0  0  0  0  0
   -4.3700   -1.2080  -18.7330 H   0  0  0  0  0  0  0  0  0  0  0  0
   -5.4032    0.0495  -15.5297 H   0  0  0  0  0  0  0  0  0  0  0  0
   -7.4837    0.7642  -12.6995 H   0  0  0  0  0  0  0  0  0  0  0  0
   -8.6253    2.8131  -13.5440 H   0  0  0  0  0  0  0  0  0  0  0  0
  -10.5720    3.2300  -15.8510 H   0  0  0  0  0  0  0  0  0  0  0  0
  -10.9480    4.6660  -17.2610 H   0  0  0  0  0  0  0  0  0  0  0  0
   -9.2027    7.4317  -16.1707 H   0  0  0  0  0  0  0  0  0  0  0  0
   -8.9521    9.5574  -17.4421 H   0  0  0  0  0  0  0  0  0  0  0  0
  -10.4675    5.4365  -19.7784 H   0  0  0  0  0  0  0  0  0  0  0  0
   -9.1004    0.9442  -17.4111 H   0  0  0  0  0  0  0  0  0  0  0  0
   -7.9501   -1.1012  -16.5664 H   0  0  0  0  0  0  0  0  0  0  0  0
   -6.3030   -3.9967  -14.2593 H   0  0  0  0  0  0  0  0  0  0  0  0
   -4.4195   -4.7926  -15.6445 H   0  0  0  0  0  0  0  0  0  0  0  0
  1  2  1  0
  2  3  1  0
  3  4  2  0
  3  5  1  0
  5  6  2  0
  6  7  1  0
  7  8  1  0
  8  9  1  0
  9 10  1  0
 10 11  2  0
 11 12  1  0
 12 13  1  0
 13 14  1  0
 14 15  2  0
 14 16  1  0
 16 17  1  0
 17 18  1  0
 18 19  2  0
 19 20  1  0
 20 21  1  0
 20 22  2  0
 22 23  1  0
 23 24  1  0
 23 25  1  0
 23 26  1  0
 22 27  1  0
 12 28  2  0
 28 29  1  0
  7 30  2  0
 30 31  1  0
 31 32  2  0
 32  5  1  0
 29  9  2  0
 27 17  2  0
  1 33  1  0
  1 34  1  0
  1 35  1  0
  2 36  1  0
  6 37  1  0
 10 38  1  0
 11 39  1  0
 13 40  1  0
 16 41  1  0
 18 42  1  0
 19 43  1  0
 27 44  1  0
 28 45  1  0
 29 46  1  0
 30 47  1  0
 31 48  1  0
M  END
>  <meeko>  (5) 
{"is_sidechain": false}

>  <vina_affinity_kcal_mol>  (5) 
-8.483

>  <pose_rank>  (5) 
5

$$$$

     RDKit          3D

 48 50  0  0  0  0  0  0  0  0999 V2000
  -20.1850    1.2330   -5.6990 C   0  0  0  0  0  0  0  0  0  0  0  0
  -19.1990    0.3770   -6.2980 N   0  0  0  0  0  0  0  0  0  0  0  0
  -18.0430    0.0080   -5.6430 C   0  0  0  0  0  0  0  0  0  0  0  0
  -17.7890    0.2940   -4.4800 O   0  0  0  0  0  0  0  0  0  0  0  0
  -17.0830   -0.7760   -6.4880 C   0  0  0  0  0  0  0  0  0  0  0  0
  -15.8130   -0.2760   -6.7280 C   0  0  0  0  0  0  0  0  0  0  0  0
  -14.9690   -1.0310   -7.5310 C   0  0  0  0  0  0  0  0  0  0  0  0
  -13.6980   -0.5440   -7.7370 O   0  0  0  0  0  0  0  0  0  0  0  0
  -13.4550    0.0650   -8.9460 C   0  0  0  0  0  0  0  0  0  0  0  0
  -12.1480    0.0440   -9.4250 C   0  0  0  0  0  0  0  0  0  0  0  0
  -11.8340    0.6730  -10.6340 C   0  0  0  0  0  0  0  0  0  0  0  0
  -12.8200    1.3470  -11.3600 C   0  0  0  0  0  0  0  0  0  0  0  0
  -12.5890    2.0010  -12.5890 N   0  0  0  0  0  0  0  0  0  0  0  0
  -11.3670    2.2380  -13.2050 C   0  0  0  0  0  0  0  0  0  0  0  0
  -10.2740    1.9740  -12.7250 O   0  0  0  0  0  0  0  0  0  0  0  0
  -11.5660    2.8150  -14.4530 N   0  0  0  0  0  0  0  0  0  0  0  0
  -10.5810    3.2990  -15.3380 C   0  0  0  0  0  0  0  0  0  0  0  0
   -9.5540    2.5190  -15.8650 C   0  0  0  0  0  0  0  0  0  0  0  0
   -8.6110    3.0810  -16.7310 C   0  0  0  0  0  0  0  0  0  0  0  0
   -8.6810    4.4320  -17.0780 C   0  0  0  0  0  0  0  0  0  0  0  0
   -7.4780    5.0450  -18.1530 Cl  0  0  0  0  0  0  0  0  0  0  0  0
   -9.6960    5.2380  -16.5580 C   0  0  0  0  0  0  0  0  0  0  0  0
   -9.7980    6.6970  -16.9090 C   0  0  0  0  0  0  0  0  0  0  0  0
  -10.2480    6.9140  -18.1750 F   0  0  0  0  0  0  0  0  0  0  0  0
  -10.6220    7.3930  -16.0780 F   0  0  0  0  0  0  0  0  0  0  0  0
   -8.5950    7.3410  -16.8420 F   0  0  0  0  0  0  0  0  0  0  0  0
  -10.6400    4.6560  -15.6850 C   0  0  0  0  0  0  0  0  0  0  0  0
  -14.1290    1.3780  -10.8570 C   0  0  0  0  0  0  0  0  0  0  0  0
  -14.4450    0.7470   -9.6500 C   0  0  0  0  0  0  0  0  0  0  0  0
  -15.3940   -2.2590   -8.0350 C   0  0  0  0  0  0  0  0  0  0  0  0
  -16.6810   -2.6740   -7.7380 C   0  0  0  0  0  0  0  0  0  0  0  0
  -17.5440   -1.9610   -6.9830 N   0  0  0  0  0  0  0  0  0  0  0  0
  -20.1101    1.1680   -4.6035 H   0  0  0  0  0  0  0  0  0  0  0  0
  -20.0111    2.2714   -6.0174 H   0  0  0  0  0  0  0  0  0  0  0  0
  -21.1887    0.9150   -6.0174 H   0  0  0  0  0  0  0  0  0  0  0  0
  -19.2370    0.1620   -7.2910 H   0  0  0  0  0  0  0  0  0  0  0  0
  -15.4862    0.6825   -6.2986 H   0  0  0  0  0  0  0  0  0  0  0  0
  -11.3611   -0.4681   -8.8517 H   0  0  0  0  0  0  0  0  0  0  0  0
  -10.8032    0.6370  -11.0164 H   0  0  0  0  0  0  0  0  0  0  0  0
  -13.3870    2.4610  -12.9960 H   0  0  0  0  0  0  0  0  0  0  0  0
  -12.5030    2.7530  -14.8200 H   0  0  0  0  0  0  0  0  0  0  0  0
   -9.4845    1.4541  -15.5981 H   0  0  0  0  0  0  0  0  0  0  0  0
   -7.8068    2.4534  -17.1427 H   0  0  0  0  0  0  0  0  0  0  0  0
  -11.4416    5.2825  -15.2667 H   0  0  0  0  0  0  0  0  0  0  0  0
  -14.9153    1.9043  -11.4181 H   0  0  0  0  0  0  0  0  0  0  0  0
  -15.4718    0.7889   -9.2576 H   0  0  0  0  0  0  0  0  0  0  0  0
  -14.7266   -2.8801   -8.6505 H   0  0  0  0  0  0  0  0  0  0  0  0
  -17.0200   -3.6401   -8.1402 H   0  0  0  0  0  0  0  0  0  0  0  0
  1  2  1  0
  2  3  1  0
  3  4  2  0
  3  5  1  0
  5  6  2  0
  6  7  1  0
  7  8  1  0
  8  9  1  0
  9 10  1  0
 10 11  2  0
 11 12  1  0
 12 13  1  0
 13 14  1  0
 14 15  2  0
 14 16  1  0
 16 17  1  0
 17 18  1  0
 18 19  2  0
 19 20  1  0
 20 21  1  0
 20 22  2  0
 22 23  1  0
 23 24  1  0
 23 25  1  0
 23 26  1  0
 22 27  1  0
 12 28  2  0
 28 29  1  0
  7 30  2  0
 30 31  1  0
 31 32  2  0
 32  5  1  0
 29  9  2  0
 27 17  2  0
  1 33  1  0
  1 34  1  0
  1 35  1  0
  2 36  1  0
  6 37  1  0
 10 38  1  0
 11 39  1  0
 13 40  1  0
 16 41  1  0
 18 42  1  0
 19 43  1  0
 27 44  1  0
 28 45  1  0
 29 46  1  0
 30 47  1  0
 31 48  1  0
M  END
>  <meeko>  (6) 
{"is_sidechain": false}

>  <vina_affinity_kcal_mol>  (6) 
-8.479

>  <pose_rank>  (6) 
6

$$$$

     RDKit          3D

 48 50  0  0  0  0  0  0  0  0999 V2000
  -12.7280   -7.5270   -9.5990 C   0  0  0  0  0  0  0  0  0  0  0  0
  -12.8890   -6.2150   -9.0340 N   0  0  0  0  0  0  0  0  0  0  0  0
  -13.7430   -5.9610   -7.9820 C   0  0  0  0  0  0  0  0  0  0  0  0
  -14.3670   -6.8240   -7.3780 O   0  0  0  0  0  0  0  0  0  0  0  0
  -13.8690   -4.5080   -7.6310 C   0  0  0  0  0  0  0  0  0  0  0  0
  -14.3330   -3.6100   -8.5780 C   0  0  0  0  0  0  0  0  0  0  0  0
  -14.4130   -2.2740   -8.2090 C   0  0  0  0  0  0  0  0  0  0  0  0
  -14.9060   -1.3930   -9.1440 O   0  0  0  0  0  0  0  0  0  0  0  0
  -13.9910   -0.5950   -9.7900 C   0  0  0  0  0  0  0  0  0  0  0  0
  -14.4290    0.6430  -10.2510 C   0  0  0  0  0  0  0  0  0  0  0  0
  -13.5510    1.4850  -10.9410 C   0  0  0  0  0  0  0  0  0  0  0  0
  -12.2360    1.0850  -11.1940 C   0  0  0  0  0  0  0  0  0  0  0  0
  -11.2870    1.8760  -11.8760 N   0  0  0  0  0  0  0  0  0  0  0  0
  -11.1900    2.0900  -13.2440 C   0  0  0  0  0  0  0  0  0  0  0  0
  -11.8870    1.5500  -14.0920 O   0  0  0  0  0  0  0  0  0  0  0  0
  -10.1870    3.0130  -13.5130 N   0  0  0  0  0  0  0  0  0  0  0  0
   -9.7120    3.4160  -14.7780 C   0  0  0  0  0  0  0  0  0  0  0  0
   -8.5500    2.9260  -15.3680 C   0  0  0  0  0  0  0  0  0  0  0  0
   -8.1440    3.3870  -16.6240 C   0  0  0  0  0  0  0  0  0  0  0  0
   -8.8940    4.3490  -17.3050 C   0  0  0  0  0  0  0  0  0  0  0  0
   -8.3240    4.8630  -18.8490 Cl  0  0  0  0  0  0  0  0  0  0  0  0
  -10.0600    4.8630  -16.7320 C   0  0  0  0  0  0  0  0  0  0  0  0
  -10.8900    5.9020  -17.4360 C   0  0  0  0  0  0  0  0  0  0  0  0
  -12.0280    6.2240  -16.7640 F   0  0  0  0  0  0  0  0  0  0  0  0
  -10.2210    7.0670  -17.6520 F   0  0  0  0  0  0  0  0  0  0  0  0
  -11.3070    5.4940  -18.6720 F   0  0  0  0  0  0  0  0  0  0  0  0
  -10.4560    4.3870  -15.4640 C   0  0  0  0  0  0  0  0  0  0  0  0
  -11.8120   -0.1730  -10.7410 C   0  0  0  0  0  0  0  0  0  0  0  0
  -12.6870   -1.0150  -10.0480 C   0  0  0  0  0  0  0  0  0  0  0  0
  -14.0690   -1.8830   -6.9160 C   0  0  0  0  0  0  0  0  0  0  0  0
  -13.6180   -2.8550   -6.0400 C   0  0  0  0  0  0  0  0  0  0  0  0
  -13.4990   -4.1600   -6.3640 N   0  0  0  0  0  0  0  0  0  0  0  0
  -12.6373   -8.2662   -8.7895 H   0  0  0  0  0  0  0  0  0  0  0  0
  -13.6032   -7.7688  -10.2199 H   0  0  0  0  0  0  0  0  0  0  0  0
  -11.8203   -7.5500  -10.2199 H   0  0  0  0  0  0  0  0  0  0  0  0
  -12.5140   -5.3990   -9.5110 H   0  0  0  0  0  0  0  0  0  0  0  0
  -14.6270   -3.9428   -9.5844 H   0  0  0  0  0  0  0  0  0  0  0  0
  -15.4672    0.9597  -10.0724 H   0  0  0  0  0  0  0  0  0  0  0  0
  -13.8981    2.4697  -11.2872 H   0  0  0  0  0  0  0  0  0  0  0  0
  -10.5180    2.2130  -11.3190 H   0  0  0  0  0  0  0  0  0  0  0  0
   -9.8650    3.5520  -12.7240 H   0  0  0  0  0  0  0  0  0  0  0  0
   -7.9471    2.1709  -14.8423 H   0  0  0  0  0  0  0  0  0  0  0  0
   -7.2257    2.9886  -17.0801 H   0  0  0  0  0  0  0  0  0  0  0  0
  -11.3706    4.7873  -15.0023 H   0  0  0  0  0  0  0  0  0  0  0  0
  -10.7797   -0.5007  -10.9331 H   0  0  0  0  0  0  0  0  0  0  0  0
  -12.3479   -2.0046   -9.7078 H   0  0  0  0  0  0  0  0  0  0  0  0
  -14.1535   -0.8325   -6.6010 H   0  0  0  0  0  0  0  0  0  0  0  0
  -13.3406   -2.5464   -5.0213 H   0  0  0  0  0  0  0  0  0  0  0  0
  1  2  1  0
  2  3  1  0
  3  4  2  0
  3  5  1  0
  5  6  2  0
  6  7  1  0
  7  8  1  0
  8  9  1  0
  9 10  1  0
 10 11  2  0
 11 12  1  0
 12 13  1  0
 13 14  1  0
 14 15  2  0
 14 16  1  0
 16 17  1  0
 17 18  1  0
 18 19  2  0
 19 20  1  0
 20 21  1  0
 20 22  2  0
 22 23  1  0
 23 24  1  0
 23 25  1  0
 23 26  1  0
 22 27  1  0
 12 28  2  0
 28 29  1  0
  7 30  2  0
 30 31  1  0
 31 32  2  0
 32  5  1  0
 29  9  2  0
 27 17  2  0
  1 33  1  0
  1 34  1  0
  1 35  1  0
  2 36  1  0
  6 37  1  0
 10 38  1  0
 11 39  1  0
 13 40  1  0
 16 41  1  0
 18 42  1  0
 19 43  1  0
 27 44  1  0
 28 45  1  0
 29 46  1  0
 30 47  1  0
 31 48  1  0
M  END
>  <meeko>  (7) 
{"is_sidechain": false}

>  <vina_affinity_kcal_mol>  (7) 
-8.449

>  <pose_rank>  (7) 
7

$$$$

     RDKit          3D

 48 50  0  0  0  0  0  0  0  0999 V2000
  -10.9720    0.9360   -6.6170 C   0  0  0  0  0  0  0  0  0  0  0  0
  -11.0330    0.2060   -7.8530 N   0  0  0  0  0  0  0  0  0  0  0  0
  -11.8970   -0.8510   -8.0470 C   0  0  0  0  0  0  0  0  0  0  0  0
  -12.7430   -1.2060   -7.2360 O   0  0  0  0  0  0  0  0  0  0  0  0
  -11.7110   -1.5650   -9.3530 C   0  0  0  0  0  0  0  0  0  0  0  0
  -10.8160   -1.0680  -10.2860 C   0  0  0  0  0  0  0  0  0  0  0  0
  -10.6950   -1.7550  -11.4860 C   0  0  0  0  0  0  0  0  0  0  0  0
   -9.7790   -1.2740  -12.3950 O   0  0  0  0  0  0  0  0  0  0  0  0
  -10.1120   -0.1170  -13.0590 C   0  0  0  0  0  0  0  0  0  0  0  0
   -9.3640    0.2180  -14.1840 C   0  0  0  0  0  0  0  0  0  0  0  0
   -9.6360    1.3980  -14.8830 C   0  0  0  0  0  0  0  0  0  0  0  0
  -10.6440    2.2630  -14.4480 C   0  0  0  0  0  0  0  0  0  0  0  0
  -10.9860    3.4670  -15.0980 N   0  0  0  0  0  0  0  0  0  0  0  0
  -10.1520    4.3000  -15.8320 C   0  0  0  0  0  0  0  0  0  0  0  0
   -8.9460    4.1480  -15.9650 O   0  0  0  0  0  0  0  0  0  0  0  0
  -10.8880    5.3330  -16.4000 N   0  0  0  0  0  0  0  0  0  0  0  0
  -10.3940    6.4360  -17.1260 C   0  0  0  0  0  0  0  0  0  0  0  0
   -9.7870    7.5460  -16.5420 C   0  0  0  0  0  0  0  0  0  0  0  0
   -9.3330    8.6040  -17.3360 C   0  0  0  0  0  0  0  0  0  0  0  0
   -9.4850    8.5670  -18.7240 C   0  0  0  0  0  0  0  0  0  0  0  0
   -8.8970    9.9130  -19.6300 Cl  0  0  0  0  0  0  0  0  0  0  0  0
  -10.0980    7.4690  -19.3340 C   0  0  0  0  0  0  0  0  0  0  0  0
  -10.2800    7.3990  -20.8250 C   0  0  0  0  0  0  0  0  0  0  0  0
  -10.8620    6.2420  -21.2400 F   0  0  0  0  0  0  0  0  0  0  0  0
  -11.0360    8.4160  -21.3220 F   0  0  0  0  0  0  0  0  0  0  0  0
   -9.0970    7.4680  -21.5050 F   0  0  0  0  0  0  0  0  0  0  0  0
  -10.5500    6.4100  -18.5190 C   0  0  0  0  0  0  0  0  0  0  0  0
  -11.3780    1.9250  -13.3020 C   0  0  0  0  0  0  0  0  0  0  0  0
  -11.1100    0.7440  -12.6040 C   0  0  0  0  0  0  0  0  0  0  0  0
  -11.4290   -2.9190  -11.7040 C   0  0  0  0  0  0  0  0  0  0  0  0
  -12.2960   -3.3370  -10.7100 C   0  0  0  0  0  0  0  0  0  0  0  0
  -12.4650   -2.6870   -9.5390 N   0  0  0  0  0  0  0  0  0  0  0  0
  -11.0307    0.2332   -5.7728 H   0  0  0  0  0  0  0  0  0  0  0  0
  -10.0243    1.4920   -6.5660 H   0  0  0  0  0  0  0  0  0  0  0  0
  -11.8143    1.6416   -6.5660 H   0  0  0  0  0  0  0  0  0  0  0  0
  -10.3130    0.3290   -8.5610 H   0  0  0  0  0  0  0  0  0  0  0  0
  -10.2237   -0.1634  -10.0837 H   0  0  0  0  0  0  0  0  0  0  0  0
   -8.5567   -0.4473  -14.5241 H   0  0  0  0  0  0  0  0  0  0  0  0
   -9.0526    1.6473  -15.7816 H   0  0  0  0  0  0  0  0  0  0  0  0
  -11.9060    3.8280  -14.8950 H   0  0  0  0  0  0  0  0  0  0  0  0
  -11.8880    5.2030  -16.4120 H   0  0  0  0  0  0  0  0  0  0  0  0
   -9.6642    7.5904  -15.4498 H   0  0  0  0  0  0  0  0  0  0  0  0
   -8.8520    9.4730  -16.8633 H   0  0  0  0  0  0  0  0  0  0  0  0
  -11.0369    5.5423  -18.9881 H   0  0  0  0  0  0  0  0  0  0  0  0
  -12.1738    2.5970  -12.9483 H   0  0  0  0  0  0  0  0  0  0  0  0
  -11.6841    0.4948  -11.6994 H   0  0  0  0  0  0  0  0  0  0  0  0
  -11.3224   -3.4889  -12.6388 H   0  0  0  0  0  0  0  0  0  0  0  0
  -12.8814   -4.2519  -10.8840 H   0  0  0  0  0  0  0  0  0  0  0  0
  1  2  1  0
  2  3  1  0
  3  4  2  0
  3  5  1  0
  5  6  2  0
  6  7  1  0
  7  8  1  0
  8  9  1  0
  9 10  1  0
 10 11  2  0
 11 12  1  0
 12 13  1  0
 13 14  1  0
 14 15  2  0
 14 16  1  0
 16 17  1  0
 17 18  1  0
 18 19  2  0
 19 20  1  0
 20 21  1  0
 20 22  2  0
 22 23  1  0
 23 24  1  0
 23 25  1  0
 23 26  1  0
 22 27  1  0
 12 28  2  0
 28 29  1  0
  7 30  2  0
 30 31  1  0
 31 32  2  0
 32  5  1  0
 29  9  2  0
 27 17  2  0
  1 33  1  0
  1 34  1  0
  1 35  1  0
  2 36  1  0
  6 37  1  0
 10 38  1  0
 11 39  1  0
 13 40  1  0
 16 41  1  0
 18 42  1  0
 19 43  1  0
 27 44  1  0
 28 45  1  0
 29 46  1  0
 30 47  1  0
 31 48  1  0
M  END
>  <meeko>  (8) 
{"is_sidechain": false}

>  <vina_affinity_kcal_mol>  (8) 
-8.368

>  <pose_rank>  (8) 
8

$$$$

     RDKit          3D

 48 50  0  0  0  0  0  0  0  0999 V2000
  -12.0030   -2.6010   -2.9590 C   0  0  0  0  0  0  0  0  0  0  0  0
  -12.8830   -2.3800   -4.0730 N   0  0  0  0  0  0  0  0  0  0  0  0
  -13.2520   -1.1180   -4.4880 C   0  0  0  0  0  0  0  0  0  0  0  0
  -12.8040   -0.0800   -4.0170 O   0  0  0  0  0  0  0  0  0  0  0  0
  -14.2820   -1.1060   -5.5780 C   0  0  0  0  0  0  0  0  0  0  0  0
  -13.9150   -1.4270   -6.8740 C   0  0  0  0  0  0  0  0  0  0  0  0
  -14.9010   -1.3820   -7.8500 C   0  0  0  0  0  0  0  0  0  0  0  0
  -14.5360   -1.7350   -9.1290 O   0  0  0  0  0  0  0  0  0  0  0  0
  -13.6590   -0.8980   -9.7780 C   0  0  0  0  0  0  0  0  0  0  0  0
  -14.1370    0.3450  -10.1840 C   0  0  0  0  0  0  0  0  0  0  0  0
  -13.2990    1.2260  -10.8750 C   0  0  0  0  0  0  0  0  0  0  0  0
  -11.9860    0.8630  -11.1830 C   0  0  0  0  0  0  0  0  0  0  0  0
  -11.0760    1.6940  -11.8700 N   0  0  0  0  0  0  0  0  0  0  0  0
  -11.0110    1.9320  -13.2370 C   0  0  0  0  0  0  0  0  0  0  0  0
  -11.7060    1.3830  -14.0800 O   0  0  0  0  0  0  0  0  0  0  0  0
  -10.0450    2.8920  -13.5090 N   0  0  0  0  0  0  0  0  0  0  0  0
   -9.6070    3.3290  -14.7760 C   0  0  0  0  0  0  0  0  0  0  0  0
   -8.4530    2.8680  -15.4050 C   0  0  0  0  0  0  0  0  0  0  0  0
   -8.0850    3.3630  -16.6600 C   0  0  0  0  0  0  0  0  0  0  0  0
   -8.8650    4.3280  -17.3000 C   0  0  0  0  0  0  0  0  0  0  0  0
   -8.3400    4.8850  -18.8470 Cl  0  0  0  0  0  0  0  0  0  0  0  0
  -10.0230    4.8140  -16.6880 C   0  0  0  0  0  0  0  0  0  0  0  0
  -10.8830    5.8570  -17.3480 C   0  0  0  0  0  0  0  0  0  0  0  0
  -12.0240    6.1250  -16.6570 F   0  0  0  0  0  0  0  0  0  0  0  0
  -10.2450    7.0460  -17.5240 F   0  0  0  0  0  0  0  0  0  0  0  0
  -11.2990    5.4850  -18.5950 F   0  0  0  0  0  0  0  0  0  0  0  0
  -10.3800    4.3050  -15.4210 C   0  0  0  0  0  0  0  0  0  0  0  0
  -11.5220   -0.4000  -10.7850 C   0  0  0  0  0  0  0  0  0  0  0  0
  -12.3560   -1.2820  -10.0920 C   0  0  0  0  0  0  0  0  0  0  0  0
  -16.2130   -1.0590   -7.5050 C   0  0  0  0  0  0  0  0  0  0  0  0
  -16.4820   -0.7550   -6.1820 C   0  0  0  0  0  0  0  0  0  0  0  0
  -15.5490   -0.7610   -5.2060 N   0  0  0  0  0  0  0  0  0  0  0  0
  -12.5583   -2.4615   -2.0198 H   0  0  0  0  0  0  0  0  0  0  0  0
  -11.6072   -3.6264   -3.0022 H   0  0  0  0  0  0  0  0  0  0  0  0
  -11.1697   -1.8842   -3.0022 H   0  0  0  0  0  0  0  0  0  0  0  0
  -13.4070   -3.1530   -4.4780 H   0  0  0  0  0  0  0  0  0  0  0  0
  -12.8804   -1.7073   -7.1210 H   0  0  0  0  0  0  0  0  0  0  0  0
  -15.1746    0.6344   -9.9611 H   0  0  0  0  0  0  0  0  0  0  0  0
  -13.6773    2.2133  -11.1785 H   0  0  0  0  0  0  0  0  0  0  0  0
  -10.3080    2.0480  -11.3220 H   0  0  0  0  0  0  0  0  0  0  0  0
   -9.7250    3.4290  -12.7170 H   0  0  0  0  0  0  0  0  0  0  0  0
   -7.8272    2.1098  -14.9115 H   0  0  0  0  0  0  0  0  0  0  0  0
   -7.1727    2.9887  -17.1474 H   0  0  0  0  0  0  0  0  0  0  0  0
  -11.2872    4.6833  -14.9272 H   0  0  0  0  0  0  0  0  0  0  0  0
  -10.4902   -0.6994  -11.0210 H   0  0  0  0  0  0  0  0  0  0  0  0
  -11.9860   -2.2746   -9.7957 H   0  0  0  0  0  0  0  0  0  0  0  0
  -17.0107   -1.0462   -8.2623 H   0  0  0  0  0  0  0  0  0  0  0  0
  -17.5152   -0.4935   -5.9099 H   0  0  0  0  0  0  0  0  0  0  0  0
  1  2  1  0
  2  3  1  0
  3  4  2  0
  3  5  1  0
  5  6  2  0
  6  7  1  0
  7  8  1  0
  8  9  1  0
  9 10  1  0
 10 11  2  0
 11 12  1  0
 12 13  1  0
 13 14  1  0
 14 15  2  0
 14 16  1  0
 16 17  1  0
 17 18  1  0
 18 19  2  0
 19 20  1  0
 20 21  1  0
 20 22  2  0
 22 23  1  0
 23 24  1  0
 23 25  1  0
 23 26  1  0
 22 27  1  0
 12 28  2  0
 28 29  1  0
  7 30  2  0
 30 31  1  0
 31 32  2  0
 32  5  1  0
 29  9  2  0
 27 17  2  0
  1 33  1  0
  1 34  1  0
  1 35  1  0
  2 36  1  0
  6 37  1  0
 10 38  1  0
 11 39  1  0
 13 40  1  0
 16 41  1  0
 18 42  1  0
 19 43  1  0
 27 44  1  0
 28 45  1  0
 29 46  1  0
 30 47  1  0
 31 48  1  0
M  END
>  <meeko>  (9) 
{"is_sidechain": false}

>  <vina_affinity_kcal_mol>  (9) 
-8.318

>  <pose_rank>  (9) 
9

$$$$

     RDKit          3D

 48 50  0  0  0  0  0  0  0  0999 V2000
  -20.1660   -0.1500   -6.5080 C   0  0  0  0  0  0  0  0  0  0  0  0
  -18.8160   -0.6390   -6.5840 N   0  0  0  0  0  0  0  0  0  0  0  0
  -17.8120   -0.1720   -5.7630 C   0  0  0  0  0  0  0  0  0  0  0  0
  -17.9850    0.6210   -4.8460 O   0  0  0  0  0  0  0  0  0  0  0  0
  -16.4510   -0.7080   -6.0930 C   0  0  0  0  0  0  0  0  0  0  0  0
  -16.1540   -1.0770   -7.3950 C   0  0  0  0  0  0  0  0  0  0  0  0
  -14.8860   -1.5850   -7.6430 C   0  0  0  0  0  0  0  0  0  0  0  0
  -14.5880   -1.9180   -8.9450 O   0  0  0  0  0  0  0  0  0  0  0  0
  -13.7130   -1.0930   -9.6120 C   0  0  0  0  0  0  0  0  0  0  0  0
  -14.1830    0.1560  -10.0090 C   0  0  0  0  0  0  0  0  0  0  0  0
  -13.3490    1.0260  -10.7180 C   0  0  0  0  0  0  0  0  0  0  0  0
  -12.0470    0.6450  -11.0530 C   0  0  0  0  0  0  0  0  0  0  0  0
  -11.1410    1.4650  -11.7590 N   0  0  0  0  0  0  0  0  0  0  0  0
  -11.2650    1.9430  -13.0570 C   0  0  0  0  0  0  0  0  0  0  0  0
  -12.1690    1.6550  -13.8290 O   0  0  0  0  0  0  0  0  0  0  0  0
  -10.2150    2.8020  -13.3520 N   0  0  0  0  0  0  0  0  0  0  0  0
   -9.9270    3.4070  -14.5930 C   0  0  0  0  0  0  0  0  0  0  0  0
  -10.7650    4.3200  -15.2290 C   0  0  0  0  0  0  0  0  0  0  0  0
  -10.4080    4.8670  -16.4660 C   0  0  0  0  0  0  0  0  0  0  0  0
   -9.2090    4.5040  -17.0830 C   0  0  0  0  0  0  0  0  0  0  0  0
   -8.8440    5.2250  -18.6070 Cl  0  0  0  0  0  0  0  0  0  0  0  0
   -8.3540    3.5850  -16.4700 C   0  0  0  0  0  0  0  0  0  0  0  0
   -7.0570    3.1700  -17.1100 C   0  0  0  0  0  0  0  0  0  0  0  0
   -6.2230    4.2160  -17.3560 F   0  0  0  0  0  0  0  0  0  0  0  0
   -6.3530    2.2750  -16.3650 F   0  0  0  0  0  0  0  0  0  0  0  0
   -7.2380    2.5640  -18.3220 F   0  0  0  0  0  0  0  0  0  0  0  0
   -8.7290    3.0420  -15.2230 C   0  0  0  0  0  0  0  0  0  0  0  0
  -11.5920   -0.6230  -10.6650 C   0  0  0  0  0  0  0  0  0  0  0  0
  -12.4230   -1.4940   -9.9540 C   0  0  0  0  0  0  0  0  0  0  0  0
  -13.9530   -1.6760   -6.6120 C   0  0  0  0  0  0  0  0  0  0  0  0
  -14.3430   -1.2800   -5.3450 C   0  0  0  0  0  0  0  0  0  0  0  0
  -15.5730   -0.8050   -5.0520 N   0  0  0  0  0  0  0  0  0  0  0  0
  -20.4587   -0.0440   -5.4530 H   0  0  0  0  0  0  0  0  0  0  0  0
  -20.2302    0.8285   -7.0064 H   0  0  0  0  0  0  0  0  0  0  0  0
  -20.8419   -0.8604   -7.0064 H   0  0  0  0  0  0  0  0  0  0  0  0
  -18.5200   -1.2140   -7.3700 H   0  0  0  0  0  0  0  0  0  0  0  0
  -16.8946   -0.9715   -8.2014 H   0  0  0  0  0  0  0  0  0  0  0  0
  -15.2119    0.4588   -9.7645 H   0  0  0  0  0  0  0  0  0  0  0  0
  -13.7207    2.0180  -11.0143 H   0  0  0  0  0  0  0  0  0  0  0  0
  -10.2460    1.6080  -11.3180 H   0  0  0  0  0  0  0  0  0  0  0  0
   -9.6860    3.1360  -12.5610 H   0  0  0  0  0  0  0  0  0  0  0  0
  -11.7137    4.6128  -14.7554 H   0  0  0  0  0  0  0  0  0  0  0  0
  -11.0772    5.5890  -16.9567 H   0  0  0  0  0  0  0  0  0  0  0  0
   -8.0652    2.3145  -14.7331 H   0  0  0  0  0  0  0  0  0  0  0  0
  -10.5696   -0.9362  -10.9229 H   0  0  0  0  0  0  0  0  0  0  0  0
  -12.0601   -2.4916   -9.6658 H   0  0  0  0  0  0  0  0  0  0  0  0
  -12.9363   -2.0516   -6.7999 H   0  0  0  0  0  0  0  0  0  0  0  0
  -13.6090   -1.3564   -4.5292 H   0  0  0  0  0  0  0  0  0  0  0  0
  1  2  1  0
  2  3  1  0
  3  4  2  0
  3  5  1  0
  5  6  2  0
  6  7  1  0
  7  8  1  0
  8  9  1  0
  9 10  1  0
 10 11  2  0
 11 12  1  0
 12 13  1  0
 13 14  1  0
 14 15  2  0
 14 16  1  0
 16 17  1  0
 17 18  1  0
 18 19  2  0
 19 20  1  0
 20 21  1  0
 20 22  2  0
 22 23  1  0
 23 24  1  0
 23 25  1  0
 23 26  1  0
 22 27  1  0
 12 28  2  0
 28 29  1  0
  7 30  2  0
 30 31  1  0
 31 32  2  0
 32  5  1  0
 29  9  2  0
 27 17  2  0
  1 33  1  0
  1 34  1  0
  1 35  1  0
  2 36  1  0
  6 37  1  0
 10 38  1  0
 11 39  1  0
 13 40  1  0
 16 41  1  0
 18 42  1  0
 19 43  1  0
 27 44  1  0
 28 45  1  0
 29 46  1  0
 30 47  1  0
 31 48  1  0
M  END
>  <meeko>  (10) 
{"is_sidechain": false}

>  <vina_affinity_kcal_mol>  (10) 
-8.283

>  <pose_rank>  (10) 
10

$$$$
