
     RDKit          3D

 73 77  0  0  0  0  0  0  0  0999 V2000
   -8.9040    9.5310  -19.9330 C   0  0  0  0  0  0  0  0  0  0  0  0
  -10.0710    8.8060  -20.3230 O   0  0  0  0  0  0  0  0  0  0  0  0
   -9.8260    7.5280  -20.7010 C   0  0  0  0  0  0  0  0  0  0  0  0
   -9.6820    7.1350  -21.8480 O   0  0  0  0  0  0  0  0  0  0  0  0
   -9.7500    6.6320  -19.5160 C   0  0  0  0  0  0  0  0  0  0  0  0
   -8.6910    5.7170  -19.3280 C   0  0  0  0  0  0  0  0  0  0  0  0
   -8.6440    4.8840  -18.1990 C   0  0  0  0  0  0  0  0  0  0  0  0
   -9.6640    4.9620  -17.2660 C   0  0  0  0  0  0  0  0  0  0  0  0
  -10.6970    5.8880  -17.4620 C   0  0  0  0  0  0  0  0  0  0  0  0
  -10.7710    6.7220  -18.5620 C   0  0  0  0  0  0  0  0  0  0  0  0
  -11.5970    5.8560  -16.4040 N   0  0  0  0  0  0  0  0  0  0  0  0
  -11.2190    4.9320  -15.4510 C   0  0  0  0  0  0  0  0  0  0  0  0
  -11.7810    4.6950  -14.3970 O   0  0  0  0  0  0  0  0  0  0  0  0
   -9.9590    4.2850  -15.9870 C   0  0  0  0  0  0  0  0  0  0  0  0
   -9.3570    3.2840  -15.2960 C   0  0  0  0  0  0  0  0  0  0  0  0
   -9.8010    2.8600  -14.0450 N   0  0  0  0  0  0  0  0  0  0  0  0
   -9.8880    1.6250  -13.3810 C   0  0  0  0  0  0  0  0  0  0  0  0
  -10.9910    1.4160  -12.5420 C   0  0  0  0  0  0  0  0  0  0  0  0
  -11.1500    0.2350  -11.7990 C   0  0  0  0  0  0  0  0  0  0  0  0
  -10.2150   -0.8010  -11.8600 C   0  0  0  0  0  0  0  0  0  0  0  0
  -10.3480   -2.0120  -11.0790 N   0  0  0  0  0  0  0  0  0  0  0  0
   -9.3080   -2.2950  -10.0890 C   0  0  0  0  0  0  0  0  0  0  0  0
  -11.3740   -2.9530  -11.3220 C   0  0  0  0  0  0  0  0  0  0  0  0
  -11.5390   -3.5220  -12.4030 O   0  0  0  0  0  0  0  0  0  0  0  0
  -12.3110   -3.2390  -10.1230 C   0  0  0  0  0  0  0  0  0  0  0  0
  -13.0270   -2.0340   -9.6630 N   0  0  0  0  0  0  0  0  0  0  0  0
  -14.4720   -2.2890   -9.5180 C   0  0  0  0  0  0  0  0  0  0  0  0
  -15.2090   -1.3090   -8.5660 C   0  0  0  0  0  0  0  0  0  0  0  0
  -14.5880    0.0170   -8.4050 N   0  0  0  0  0  0  0  0  0  0  0  0
  -14.6950    0.7920   -9.6430 C   0  0  0  0  0  0  0  0  0  0  0  0
  -13.1690   -0.1440   -8.0120 C   0  0  0  0  0  0  0  0  0  0  0  0
  -12.4790   -1.4760   -8.4190 C   0  0  0  0  0  0  0  0  0  0  0  0
   -9.0990   -0.5790  -12.6820 C   0  0  0  0  0  0  0  0  0  0  0  0
   -8.9420    0.6070  -13.4250 C   0  0  0  0  0  0  0  0  0  0  0  0
   -8.1360    2.6790  -15.8630 C   0  0  0  0  0  0  0  0  0  0  0  0
   -8.2270    1.6660  -16.8320 C   0  0  0  0  0  0  0  0  0  0  0  0
   -7.0700    1.1050  -17.3760 C   0  0  0  0  0  0  0  0  0  0  0  0
   -5.8170    1.5510  -16.9560 C   0  0  0  0  0  0  0  0  0  0  0  0
   -5.7160    2.5540  -15.9920 C   0  0  0  0  0  0  0  0  0  0  0  0
   -6.8720    3.1180  -15.4450 C   0  0  0  0  0  0  0  0  0  0  0  0
   -8.8450    9.5677  -18.8352 H   0  0  0  0  0  0  0  0  0  0  0  0
   -8.0101    9.0290  -20.3317 H   0  0  0  0  0  0  0  0  0  0  0  0
   -8.9581   10.5548  -20.3317 H   0  0  0  0  0  0  0  0  0  0  0  0
   -7.8894    5.6559  -20.0788 H   0  0  0  0  0  0  0  0  0  0  0  0
   -7.8102    4.1806  -18.0579 H   0  0  0  0  0  0  0  0  0  0  0  0
  -11.6028    7.4315  -18.6836 H   0  0  0  0  0  0  0  0  0  0  0  0
  -12.4130    6.4420  -16.3020 H   0  0  0  0  0  0  0  0  0  0  0  0
  -10.2270    3.6180  -13.5010 H   0  0  0  0  0  0  0  0  0  0  0  0
  -11.7565    2.2020  -12.4630 H   0  0  0  0  0  0  0  0  0  0  0  0
  -12.0330    0.1229  -11.1527 H   0  0  0  0  0  0  0  0  0  0  0  0
   -9.7244   -2.1817   -9.0772 H   0  0  0  0  0  0  0  0  0  0  0  0
   -8.9448   -3.3246  -10.2229 H   0  0  0  0  0  0  0  0  0  0  0  0
   -8.4731   -1.5914  -10.2229 H   0  0  0  0  0  0  0  0  0  0  0  0
  -13.0510   -3.9943  -10.4264 H   0  0  0  0  0  0  0  0  0  0  0  0
  -11.6870   -3.5944   -9.2897 H   0  0  0  0  0  0  0  0  0  0  0  0
  -14.9351   -2.2142  -10.5130 H   0  0  0  0  0  0  0  0  0  0  0  0
  -14.5686   -3.2895   -9.0711 H   0  0  0  0  0  0  0  0  0  0  0  0
  -16.2264   -1.1600   -8.9567 H   0  0  0  0  0  0  0  0  0  0  0  0
  -15.1759   -1.7772   -7.5712 H   0  0  0  0  0  0  0  0  0  0  0  0
  -14.8417    1.8545   -9.3989 H   0  0  0  0  0  0  0  0  0  0  0  0
  -13.7721    0.6746  -10.2300 H   0  0  0  0  0  0  0  0  0  0  0  0
  -15.5515    0.4290  -10.2300 H   0  0  0  0  0  0  0  0  0  0  0  0
  -12.6008    0.6792   -8.4698 H   0  0  0  0  0  0  0  0  0  0  0  0
  -13.1718   -0.1441   -6.9120 H   0  0  0  0  0  0  0  0  0  0  0  0
  -11.4042   -1.2885   -8.5594 H   0  0  0  0  0  0  0  0  0  0  0  0
  -12.6595   -2.2060   -7.6161 H   0  0  0  0  0  0  0  0  0  0  0  0
   -8.3228   -1.3557  -12.7479 H   0  0  0  0  0  0  0  0  0  0  0  0
   -8.0492    0.7310  -14.0555 H   0  0  0  0  0  0  0  0  0  0  0  0
   -9.2146    1.3131  -17.1638 H   0  0  0  0  0  0  0  0  0  0  0  0
   -7.1465    0.3123  -18.1348 H   0  0  0  0  0  0  0  0  0  0  0  0
   -4.9056    1.1104  -17.3863 H   0  0  0  0  0  0  0  0  0  0  0  0
   -4.7258    2.9014  -15.6620 H   0  0  0  0  0  0  0  0  0  0  0  0
   -6.7897    3.9085  -14.6845 H   0  0  0  0  0  0  0  0  0  0  0  0
  1  2  1  0
  2  3  1  0
  3  4  2  0
  3  5  1  0
  5  6  1  0
  6  7  2  0
  7  8  1  0
  8  9  2  0
  9 10  1  0
  9 11  1  0
 11 12  1  0
 12 13  2  0
 12 14  1  0
 14 15  2  0
 15 16  1  0
 16 17  1  0
 17 18  1  0
 18 19  2  0
 19 20  1  0
 20 21  1  0
 21 22  1  0
 21 23  1  0
 23 24  2  0
 23 25  1  0
 25 26  1  0
 26 27  1  0
 27 28  1  0
 28 29  1  0
 29 30  1  0
 29 31  1  0
 31 32  1  0
 20 33  2  0
 33 34  1  0
 15 35  1  0
 35 36  2  0
 36 37  1  0
 37 38  2  0
 38 39  1  0
 39 40  2  0
 10  5  2  0
 34 17  2  0
 40 35  1  0
 14  8  1  0
 32 26  1  0
  1 41  1  0
  1 42  1  0
  1 43  1  0
  6 44  1  0
  7 45  1  0
 10 46  1  0
 11 47  1  0
 16 48  1  0
 18 49  1  0
 19 50  1  0
 22 51  1  0
 22 52  1  0
 22 53  1  0
 25 54  1  0
 25 55  1  0
 27 56  1  0
 27 57  1  0
 28 58  1  0
 28 59  1  0
 30 60  1  0
 30 61  1  0
 30 62  1  0
 31 63  1  0
 31 64  1  0
 32 65  1  0
 32 66  1  0
 33 67  1  0
 34 68  1  0
 36 69  1  0
 37 70  1  0
 38 71  1  0
 39 72  1  0
 40 73  1  0
M  END
>  <meeko>  (1) 
{"is_sidechain": false}

>  <vina_affinity_kcal_mol>  (1) 
-10.117

>  <pose_rank>  (1) 
1

$$$$

     RDKit          3D

 73 77  0  0  0  0  0  0  0  0999 V2000
  -10.0990    7.2810  -21.8060 C   0  0  0  0  0  0  0  0  0  0  0  0
   -9.3990    6.6020  -20.7620 O   0  0  0  0  0  0  0  0  0  0  0  0
   -9.3830    7.2710  -19.5830 C   0  0  0  0  0  0  0  0  0  0  0  0
   -9.2250    8.4740  -19.4450 O   0  0  0  0  0  0  0  0  0  0  0  0
   -9.5890    6.3380  -18.4430 C   0  0  0  0  0  0  0  0  0  0  0  0
   -8.6250    5.3750  -18.0730 C   0  0  0  0  0  0  0  0  0  0  0  0
   -8.8440    4.5080  -16.9910 C   0  0  0  0  0  0  0  0  0  0  0  0
  -10.0340    4.6010  -16.2880 C   0  0  0  0  0  0  0  0  0  0  0  0
  -10.9700    5.5760  -16.6590 C   0  0  0  0  0  0  0  0  0  0  0  0
  -10.7830    6.4440  -17.7190 C   0  0  0  0  0  0  0  0  0  0  0  0
  -12.0720    5.5520  -15.8130 N   0  0  0  0  0  0  0  0  0  0  0  0
  -11.9330    4.5850  -14.8370 C   0  0  0  0  0  0  0  0  0  0  0  0
  -12.7110    4.3410  -13.9330 O   0  0  0  0  0  0  0  0  0  0  0  0
  -10.6130    3.9010  -15.1240 C   0  0  0  0  0  0  0  0  0  0  0  0
  -10.2050    2.8560  -14.3610 C   0  0  0  0  0  0  0  0  0  0  0  0
  -10.9150    2.4140  -13.2460 N   0  0  0  0  0  0  0  0  0  0  0  0
  -11.0130    1.2060  -12.5360 C   0  0  0  0  0  0  0  0  0  0  0  0
  -11.7710    1.2050  -11.3590 C   0  0  0  0  0  0  0  0  0  0  0  0
  -11.8970    0.0610  -10.5530 C   0  0  0  0  0  0  0  0  0  0  0  0
  -11.2720   -1.1430  -10.8870 C   0  0  0  0  0  0  0  0  0  0  0  0
  -11.3660   -2.3220  -10.0530 N   0  0  0  0  0  0  0  0  0  0  0  0
  -10.1650   -2.7320   -9.3240 C   0  0  0  0  0  0  0  0  0  0  0  0
  -12.5290   -3.1230  -10.0160 C   0  0  0  0  0  0  0  0  0  0  0  0
  -12.9530   -3.7620  -10.9820 O   0  0  0  0  0  0  0  0  0  0  0  0
  -13.2690   -3.1580   -8.6560 C   0  0  0  0  0  0  0  0  0  0  0  0
  -13.8470   -1.8500   -8.2920 N   0  0  0  0  0  0  0  0  0  0  0  0
  -15.3050   -1.9440   -8.0900 C   0  0  0  0  0  0  0  0  0  0  0  0
  -15.9110   -0.8130   -7.2150 C   0  0  0  0  0  0  0  0  0  0  0  0
  -15.1560    0.4520   -7.1910 N   0  0  0  0  0  0  0  0  0  0  0  0
  -15.2260    1.1210   -8.4920 C   0  0  0  0  0  0  0  0  0  0  0  0
  -13.7480    0.1840   -6.8190 C   0  0  0  0  0  0  0  0  0  0  0  0
  -13.2070   -1.2420   -7.1180 C   0  0  0  0  0  0  0  0  0  0  0  0
  -10.4920   -1.1310  -12.0540 C   0  0  0  0  0  0  0  0  0  0  0  0
  -10.3680    0.0170  -12.8590 C   0  0  0  0  0  0  0  0  0  0  0  0
   -8.9150    2.2160  -14.6840 C   0  0  0  0  0  0  0  0  0  0  0  0
   -8.8360    1.2410  -15.6910 C   0  0  0  0  0  0  0  0  0  0  0  0
   -7.6120    0.6470  -16.0040 C   0  0  0  0  0  0  0  0  0  0  0  0
   -6.4600    1.0230  -15.3130 C   0  0  0  0  0  0  0  0  0  0  0  0
   -6.5280    1.9890  -14.3090 C   0  0  0  0  0  0  0  0  0  0  0  0
   -7.7520    2.5840  -13.9930 C   0  0  0  0  0  0  0  0  0  0  0  0
  -10.8227    7.9829  -21.3660 H   0  0  0  0  0  0  0  0  0  0  0  0
   -9.3813    7.8361  -22.4279 H   0  0  0  0  0  0  0  0  0  0  0  0
  -10.6320    6.5468  -22.4279 H   0  0  0  0  0  0  0  0  0  0  0  0
   -7.6865    5.3030  -18.6423 H   0  0  0  0  0  0  0  0  0  0  0  0
   -8.0829    3.7667  -16.7059 H   0  0  0  0  0  0  0  0  0  0  0  0
  -11.5453    7.1914  -17.9842 H   0  0  0  0  0  0  0  0  0  0  0  0
  -12.8690    6.1690  -15.8610 H   0  0  0  0  0  0  0  0  0  0  0  0
  -11.5750    3.1180  -12.8970 H   0  0  0  0  0  0  0  0  0  0  0  0
  -12.2843    2.1293  -11.0555 H   0  0  0  0  0  0  0  0  0  0  0  0
  -12.5027    0.1147   -9.6364 H   0  0  0  0  0  0  0  0  0  0  0  0
  -10.3530   -2.6678   -8.2421 H   0  0  0  0  0  0  0  0  0  0  0  0
   -9.9098   -3.7681   -9.5910 H   0  0  0  0  0  0  0  0  0  0  0  0
   -9.3295   -2.0682   -9.5910 H   0  0  0  0  0  0  0  0  0  0  0  0
  -14.0808   -3.8979   -8.7153 H   0  0  0  0  0  0  0  0  0  0  0  0
  -12.5335   -3.4247   -7.8827 H   0  0  0  0  0  0  0  0  0  0  0  0
  -15.7907   -1.9122   -9.0764 H   0  0  0  0  0  0  0  0  0  0  0  0
  -15.4848   -2.8856   -7.5505 H   0  0  0  0  0  0  0  0  0  0  0  0
  -16.9205   -0.5966   -7.5945 H   0  0  0  0  0  0  0  0  0  0  0  0
  -15.8935   -1.1916   -6.1824 H   0  0  0  0  0  0  0  0  0  0  0  0
  -15.3394    2.2047   -8.3414 H   0  0  0  0  0  0  0  0  0  0  0  0
  -14.3023    0.9238   -9.0559 H   0  0  0  0  0  0  0  0  0  0  0  0
  -16.0889    0.7369   -9.0559 H   0  0  0  0  0  0  0  0  0  0  0  0
  -13.1168    0.9012   -7.3642 H   0  0  0  0  0  0  0  0  0  0  0  0
  -13.7143    0.2826   -5.7239 H   0  0  0  0  0  0  0  0  0  0  0  0
  -12.1240   -1.1778   -7.2999 H   0  0  0  0  0  0  0  0  0  0  0  0
  -13.4332   -1.8754   -6.2476 H   0  0  0  0  0  0  0  0  0  0  0  0
   -9.9607   -2.0480  -12.3488 H   0  0  0  0  0  0  0  0  0  0  0  0
   -9.7461   -0.0274  -13.7652 H   0  0  0  0  0  0  0  0  0  0  0  0
   -9.7437    0.9434  -16.2365 H   0  0  0  0  0  0  0  0  0  0  0  0
   -7.5561   -0.1162  -16.7942 H   0  0  0  0  0  0  0  0  0  0  0  0
   -5.4951    0.5564  -15.5606 H   0  0  0  0  0  0  0  0  0  0  0  0
   -5.6176    2.2824  -13.7658 H   0  0  0  0  0  0  0  0  0  0  0  0
   -7.8033    3.3438  -13.1993 H   0  0  0  0  0  0  0  0  0  0  0  0
  1  2  1  0
  2  3  1  0
  3  4  2  0
  3  5  1  0
  5  6  1  0
  6  7  2  0
  7  8  1  0
  8  9  2  0
  9 10  1  0
  9 11  1  0
 11 12  1  0
 12 13  2  0
 12 14  1  0
 14 15  2  0
 15 16  1  0
 16 17  1  0
 17 18  1  0
 18 19  2  0
 19 20  1  0
 20 21  1  0
 21 22  1  0
 21 23  1  0
 23 24  2  0
 23 25  1  0
 25 26  1  0
 26 27  1  0
 27 28  1  0
 28 29  1  0
 29 30  1  0
 29 31  1  0
 31 32  1  0
 20 33  2  0
 33 34  1  0
 15 35  1  0
 35 36  2  0
 36 37  1  0
 37 38  2  0
 38 39  1  0
 39 40  2  0
 10  5  2  0
 34 17  2  0
 40 35  1  0
 14  8  1  0
 32 26  1  0
  1 41  1  0
  1 42  1  0
  1 43  1  0
  6 44  1  0
  7 45  1  0
 10 46  1  0
 11 47  1  0
 16 48  1  0
 18 49  1  0
 19 50  1  0
 22 51  1  0
 22 52  1  0
 22 53  1  0
 25 54  1  0
 25 55  1  0
 27 56  1  0
 27 57  1  0
 28 58  1  0
 28 59  1  0
 30 60  1  0
 30 61  1  0
 30 62  1  0
 31 63  1  0
 31 64  1  0
 32 65  1  0
 32 66  1  0
 33 67  1  0
 34 68  1  0
 36 69  1  0
 37 70  1  0
 38 71  1  0
 39 72  1  0
 40 73  1  0
M  END
>  <meeko>  (2) 
{"is_sidechain": false}

>  <vina_affinity_kcal_mol>  (2) 
-9.877

>  <pose_rank>  (2) 
2

$$$$

     RDKit          3D

 73 77  0  0  0  0  0  0  0  0999 V2000
  -10.4820    7.1720  -22.1850 C   0  0  0  0  0  0  0  0  0  0  0  0
   -9.4130    6.8440  -21.2970 O   0  0  0  0  0  0  0  0  0  0  0  0
   -9.4270    7.5420  -20.1350 C   0  0  0  0  0  0  0  0  0  0  0  0
   -9.3820    8.7580  -20.0310 O   0  0  0  0  0  0  0  0  0  0  0  0
   -9.5080    6.6250  -18.9670 C   0  0  0  0  0  0  0  0  0  0  0  0
   -8.4900    5.6940  -18.6660 C   0  0  0  0  0  0  0  0  0  0  0  0
   -8.5920    4.8410  -17.5570 C   0  0  0  0  0  0  0  0  0  0  0  0
   -9.7190    4.9150  -16.7560 C   0  0  0  0  0  0  0  0  0  0  0  0
  -10.7100    5.8580  -17.0610 C   0  0  0  0  0  0  0  0  0  0  0  0
  -10.6390    6.7120  -18.1460 C   0  0  0  0  0  0  0  0  0  0  0  0
  -11.7350    5.8190  -16.1230 N   0  0  0  0  0  0  0  0  0  0  0  0
  -11.4870    4.8740  -15.1480 C   0  0  0  0  0  0  0  0  0  0  0  0
  -12.1780    4.6250  -14.1760 O   0  0  0  0  0  0  0  0  0  0  0  0
  -10.1770    4.2200  -15.5360 C   0  0  0  0  0  0  0  0  0  0  0  0
   -9.6760    3.2010  -14.7940 C   0  0  0  0  0  0  0  0  0  0  0  0
  -10.2760    2.7600  -13.6160 N   0  0  0  0  0  0  0  0  0  0  0  0
  -10.4600    1.5150  -12.9920 C   0  0  0  0  0  0  0  0  0  0  0  0
  -11.4830    1.4100  -12.0420 C   0  0  0  0  0  0  0  0  0  0  0  0
  -11.7220    0.2230  -11.3290 C   0  0  0  0  0  0  0  0  0  0  0  0
  -10.9500   -0.9230  -11.5350 C   0  0  0  0  0  0  0  0  0  0  0  0
  -11.1630   -2.1440  -10.7890 N   0  0  0  0  0  0  0  0  0  0  0  0
  -10.5190   -2.2560   -9.4790 C   0  0  0  0  0  0  0  0  0  0  0  0
  -11.8690   -3.2410  -11.3310 C   0  0  0  0  0  0  0  0  0  0  0  0
  -11.6010   -3.7600  -12.4170 O   0  0  0  0  0  0  0  0  0  0  0  0
  -13.0370   -3.7740  -10.4640 C   0  0  0  0  0  0  0  0  0  0  0  0
  -12.6780   -4.9990   -9.7230 N   0  0  0  0  0  0  0  0  0  0  0  0
  -13.1480   -4.9380   -8.3260 C   0  0  0  0  0  0  0  0  0  0  0  0
  -13.3040   -6.3210   -7.6370 C   0  0  0  0  0  0  0  0  0  0  0  0
  -12.4660   -7.4050   -8.1780 N   0  0  0  0  0  0  0  0  0  0  0  0
  -11.0530   -7.1670   -7.8730 C   0  0  0  0  0  0  0  0  0  0  0  0
  -12.6730   -7.5100   -9.6400 C   0  0  0  0  0  0  0  0  0  0  0  0
  -13.1580   -6.2270  -10.3700 C   0  0  0  0  0  0  0  0  0  0  0  0
   -9.9090   -0.8070  -12.4700 C   0  0  0  0  0  0  0  0  0  0  0  0
   -9.6720    0.3850  -13.1810 C   0  0  0  0  0  0  0  0  0  0  0  0
   -8.4010    2.5900  -15.2170 C   0  0  0  0  0  0  0  0  0  0  0  0
   -7.2000    2.9300  -14.5730 C   0  0  0  0  0  0  0  0  0  0  0  0
   -5.9970    2.3400  -14.9660 C   0  0  0  0  0  0  0  0  0  0  0  0
   -5.9860    1.4080  -16.0040 C   0  0  0  0  0  0  0  0  0  0  0  0
   -7.1730    1.0660  -16.6510 C   0  0  0  0  0  0  0  0  0  0  0  0
   -8.3780    1.6540  -16.2610 C   0  0  0  0  0  0  0  0  0  0  0  0
  -11.3731    7.4454  -21.6009 H   0  0  0  0  0  0  0  0  0  0  0  0
  -10.1848    8.0203  -22.8191 H   0  0  0  0  0  0  0  0  0  0  0  0
  -10.7117    6.3030  -22.8191 H   0  0  0  0  0  0  0  0  0  0  0  0
   -7.6017    5.6366  -19.3122 H   0  0  0  0  0  0  0  0  0  0  0  0
   -7.7894    4.1247  -17.3274 H   0  0  0  0  0  0  0  0  0  0  0  0
  -11.4420    7.4337  -18.3567 H   0  0  0  0  0  0  0  0  0  0  0  0
  -12.5510    6.4130  -16.1110 H   0  0  0  0  0  0  0  0  0  0  0  0
  -10.7560    3.5140  -13.1140 H   0  0  0  0  0  0  0  0  0  0  0  0
  -12.1204    2.2851  -11.8474 H   0  0  0  0  0  0  0  0  0  0  0  0
  -12.5369    0.1954  -10.5906 H   0  0  0  0  0  0  0  0  0  0  0  0
  -11.2720   -2.1250   -8.6879 H   0  0  0  0  0  0  0  0  0  0  0  0
  -10.0545   -3.2484   -9.3824 H   0  0  0  0  0  0  0  0  0  0  0  0
   -9.7467   -1.4787   -9.3824 H   0  0  0  0  0  0  0  0  0  0  0  0
  -13.3235   -2.9958   -9.7413 H   0  0  0  0  0  0  0  0  0  0  0  0
  -13.8680   -4.0239  -11.1401 H   0  0  0  0  0  0  0  0  0  0  0  0
  -12.4254   -4.3451   -7.7462 H   0  0  0  0  0  0  0  0  0  0  0  0
  -14.1512   -4.4876   -8.3533 H   0  0  0  0  0  0  0  0  0  0  0  0
  -13.0520   -6.1985   -6.5733 H   0  0  0  0  0  0  0  0  0  0  0  0
  -14.3444   -6.6291   -7.8178 H   0  0  0  0  0  0  0  0  0  0  0  0
  -10.9123   -7.1433   -6.7823 H   0  0  0  0  0  0  0  0  0  0  0  0
  -10.4437   -7.9752   -8.3038 H   0  0  0  0  0  0  0  0  0  0  0  0
  -10.7421   -6.2038   -8.3038 H   0  0  0  0  0  0  0  0  0  0  0  0
  -11.7155   -7.8087  -10.0916 H   0  0  0  0  0  0  0  0  0  0  0  0
  -13.4872   -8.2390   -9.7651 H   0  0  0  0  0  0  0  0  0  0  0  0
  -12.7877   -6.2485  -11.4056 H   0  0  0  0  0  0  0  0  0  0  0  0
  -14.2574   -6.2167  -10.3350 H   0  0  0  0  0  0  0  0  0  0  0  0
   -9.2581   -1.6747  -12.6528 H   0  0  0  0  0  0  0  0  0  0  0  0
   -8.8434    0.4233  -13.9035 H   0  0  0  0  0  0  0  0  0  0  0  0
   -7.2071    3.6650  -13.7546 H   0  0  0  0  0  0  0  0  0  0  0  0
   -5.0594    2.6097  -14.4579 H   0  0  0  0  0  0  0  0  0  0  0  0
   -5.0387    0.9418  -16.3128 H   0  0  0  0  0  0  0  0  0  0  0  0
   -7.1601    0.3318  -17.4700 H   0  0  0  0  0  0  0  0  0  0  0  0
   -9.3121    1.3821  -16.7743 H   0  0  0  0  0  0  0  0  0  0  0  0
  1  2  1  0
  2  3  1  0
  3  4  2  0
  3  5  1  0
  5  6  1  0
  6  7  2  0
  7  8  1  0
  8  9  2  0
  9 10  1  0
  9 11  1  0
 11 12  1  0
 12 13  2  0
 12 14  1  0
 14 15  2  0
 15 16  1  0
 16 17  1  0
 17 18  1  0
 18 19  2  0
 19 20  1  0
 20 21  1  0
 21 22  1  0
 21 23  1  0
 23 24  2  0
 23 25  1  0
 25 26  1  0
 26 27  1  0
 27 28  1  0
 28 29  1  0
 29 30  1  0
 29 31  1  0
 31 32  1  0
 20 33  2  0
 33 34  1  0
 15 35  1  0
 35 36  2  0
 36 37  1  0
 37 38  2  0
 38 39  1  0
 39 40  2  0
 10  5  2  0
 34 17  2  0
 40 35  1  0
 14  8  1  0
 32 26  1  0
  1 41  1  0
  1 42  1  0
  1 43  1  0
  6 44  1  0
  7 45  1  0
 10 46  1  0
 11 47  1  0
 16 48  1  0
 18 49  1  0
 19 50  1  0
 22 51  1  0
 22 52  1  0
 22 53  1  0
 25 54  1  0
 25 55  1  0
 27 56  1  0
 27 57  1  0
 28 58  1  0
 28 59  1  0
 30 60  1  0
 30 61  1  0
 30 62  1  0
 31 63  1  0
 31 64  1  0
 32 65  1  0
 32 66  1  0
 33 67  1  0
 34 68  1  0
 36 69  1  0
 37 70  1  0
 38 71  1  0
 39 72  1  0
 40 73  1  0
M  END
>  <meeko>  (3) 
{"is_sidechain": false}

>  <vina_affinity_kcal_mol>  (3) 
-9.681

>  <pose_rank>  (3) 
3

$$$$

     RDKit          3D

 73 77  0  0  0  0  0  0  0  0999 V2000
  -10.0900    7.2650  -21.7730 C   0  0  0  0  0  0  0  0  0  0  0  0
   -9.3340    6.6110  -20.7520 O   0  0  0  0  0  0  0  0  0  0  0  0
   -9.2980    7.2850  -19.5770 C   0  0  0  0  0  0  0  0  0  0  0  0
   -9.1280    8.4870  -19.4460 O   0  0  0  0  0  0  0  0  0  0  0  0
   -9.4950    6.3580  -18.4300 C   0  0  0  0  0  0  0  0  0  0  0  0
   -8.5260    5.4020  -18.0560 C   0  0  0  0  0  0  0  0  0  0  0  0
   -8.7380    4.5410  -16.9680 C   0  0  0  0  0  0  0  0  0  0  0  0
   -9.9270    4.6320  -16.2640 C   0  0  0  0  0  0  0  0  0  0  0  0
  -10.8690    5.5990  -16.6400 C   0  0  0  0  0  0  0  0  0  0  0  0
  -10.6890    6.4620  -17.7050 C   0  0  0  0  0  0  0  0  0  0  0  0
  -11.9700    5.5740  -15.7920 N   0  0  0  0  0  0  0  0  0  0  0  0
  -11.8240    4.6140  -14.8100 C   0  0  0  0  0  0  0  0  0  0  0  0
  -12.5990    4.3710  -13.9030 O   0  0  0  0  0  0  0  0  0  0  0  0
  -10.5000    3.9360  -15.0940 C   0  0  0  0  0  0  0  0  0  0  0  0
  -10.0850    2.8980  -14.3250 C   0  0  0  0  0  0  0  0  0  0  0  0
  -10.7900    2.4590  -13.2070 N   0  0  0  0  0  0  0  0  0  0  0  0
  -10.9430    1.2340  -12.5370 C   0  0  0  0  0  0  0  0  0  0  0  0
  -11.8150    1.1970  -11.4420 C   0  0  0  0  0  0  0  0  0  0  0  0
  -12.0050    0.0340  -10.6770 C   0  0  0  0  0  0  0  0  0  0  0  0
  -11.3330   -1.1550  -10.9730 C   0  0  0  0  0  0  0  0  0  0  0  0
  -11.4940   -2.3540  -10.1790 N   0  0  0  0  0  0  0  0  0  0  0  0
  -12.3520   -3.4110  -10.7170 C   0  0  0  0  0  0  0  0  0  0  0  0
  -10.9440   -2.4740   -8.8830 C   0  0  0  0  0  0  0  0  0  0  0  0
   -9.7530   -2.2890   -8.6240 O   0  0  0  0  0  0  0  0  0  0  0  0
  -11.9460   -2.8640   -7.7690 C   0  0  0  0  0  0  0  0  0  0  0  0
  -12.9520   -1.8130   -7.5180 N   0  0  0  0  0  0  0  0  0  0  0  0
  -14.0130   -2.2900   -6.6110 C   0  0  0  0  0  0  0  0  0  0  0  0
  -14.7890   -1.1630   -5.8770 C   0  0  0  0  0  0  0  0  0  0  0  0
  -14.8090    0.1460   -6.5520 N   0  0  0  0  0  0  0  0  0  0  0  0
  -15.6160    0.0850   -7.7730 C   0  0  0  0  0  0  0  0  0  0  0  0
  -13.4240    0.5670   -6.8630 C   0  0  0  0  0  0  0  0  0  0  0  0
  -12.3680   -0.5650   -7.0110 C   0  0  0  0  0  0  0  0  0  0  0  0
  -10.4410   -1.1080  -12.0560 C   0  0  0  0  0  0  0  0  0  0  0  0
  -10.2530    0.0600  -12.8190 C   0  0  0  0  0  0  0  0  0  0  0  0
   -8.7920    2.2630  -14.6470 C   0  0  0  0  0  0  0  0  0  0  0  0
   -8.7090    1.2790  -15.6450 C   0  0  0  0  0  0  0  0  0  0  0  0
   -7.4820    0.6910  -15.9560 C   0  0  0  0  0  0  0  0  0  0  0  0
   -6.3300    1.0810  -15.2720 C   0  0  0  0  0  0  0  0  0  0  0  0
   -6.4030    2.0550  -14.2770 C   0  0  0  0  0  0  0  0  0  0  0  0
   -7.6290    2.6460  -13.9630 C   0  0  0  0  0  0  0  0  0  0  0  0
  -10.8444    7.9176  -21.3095 H   0  0  0  0  0  0  0  0  0  0  0  0
   -9.4162    7.8697  -22.3978 H   0  0  0  0  0  0  0  0  0  0  0  0
  -10.5914    6.5112  -22.3978 H   0  0  0  0  0  0  0  0  0  0  0  0
   -7.5886    5.3306  -18.6271 H   0  0  0  0  0  0  0  0  0  0  0  0
   -7.9722    3.8060  -16.6793 H   0  0  0  0  0  0  0  0  0  0  0  0
  -11.4558    7.2036  -17.9734 H   0  0  0  0  0  0  0  0  0  0  0  0
  -12.7710    6.1860  -15.8420 H   0  0  0  0  0  0  0  0  0  0  0  0
  -11.3970    3.1880  -12.8140 H   0  0  0  0  0  0  0  0  0  0  0  0
  -12.3692    2.1080  -11.1720 H   0  0  0  0  0  0  0  0  0  0  0  0
  -12.6995    0.0600   -9.8244 H   0  0  0  0  0  0  0  0  0  0  0  0
  -12.8071   -3.9717   -9.8872 H   0  0  0  0  0  0  0  0  0  0  0  0
  -13.1441   -2.9618  -11.3340 H   0  0  0  0  0  0  0  0  0  0  0  0
  -11.7495   -4.0938  -11.3340 H   0  0  0  0  0  0  0  0  0  0  0  0
  -12.4663   -3.7853   -8.0697 H   0  0  0  0  0  0  0  0  0  0  0  0
  -11.3736   -3.0064   -6.8405 H   0  0  0  0  0  0  0  0  0  0  0  0
  -14.7335   -2.8739   -7.2025 H   0  0  0  0  0  0  0  0  0  0  0  0
  -13.5137   -2.8842   -5.8315 H   0  0  0  0  0  0  0  0  0  0  0  0
  -15.8304   -1.4952   -5.7539 H   0  0  0  0  0  0  0  0  0  0  0  0
  -14.2557   -1.0019   -4.9285 H   0  0  0  0  0  0  0  0  0  0  0  0
  -16.6800    0.0046   -7.5057 H   0  0  0  0  0  0  0  0  0  0  0  0
  -15.4547    0.9979   -8.3651 H   0  0  0  0  0  0  0  0  0  0  0  0
  -15.3193   -0.7933   -8.3651 H   0  0  0  0  0  0  0  0  0  0  0  0
  -13.4498    1.1251   -7.8106 H   0  0  0  0  0  0  0  0  0  0  0  0
  -13.0978    1.1555   -5.9928 H   0  0  0  0  0  0  0  0  0  0  0  0
  -11.5875   -0.2307   -7.7103 H   0  0  0  0  0  0  0  0  0  0  0  0
  -11.9541   -0.7699   -6.0126 H   0  0  0  0  0  0  0  0  0  0  0  0
   -9.8712   -2.0121  -12.3165 H   0  0  0  0  0  0  0  0  0  0  0  0
   -9.5429    0.0436  -13.6589 H   0  0  0  0  0  0  0  0  0  0  0  0
   -9.6161    0.9697  -16.1849 H   0  0  0  0  0  0  0  0  0  0  0  0
   -7.4232   -0.0790  -16.7394 H   0  0  0  0  0  0  0  0  0  0  0  0
   -5.3625    0.6192  -15.5182 H   0  0  0  0  0  0  0  0  0  0  0  0
   -5.4933    2.3586  -13.7382 H   0  0  0  0  0  0  0  0  0  0  0  0
   -7.6825    3.4139  -13.1772 H   0  0  0  0  0  0  0  0  0  0  0  0
  1  2  1  0
  2  3  1  0
  3  4  2  0
  3  5  1  0
  5  6  1  0
  6  7  2  0
  7  8  1  0
  8  9  2  0
  9 10  1  0
  9 11  1  0
 11 12  1  0
 12 13  2  0
 12 14  1  0
 14 15  2  0
 15 16  1  0
 16 17  1  0
 17 18  1  0
 18 19  2  0
 19 20  1  0
 20 21  1  0
 21 22  1  0
 21 23  1  0
 23 24  2  0
 23 25  1  0
 25 26  1  0
 26 27  1  0
 27 28  1  0
 28 29  1  0
 29 30  1  0
 29 31  1  0
 31 32  1  0
 20 33  2  0
 33 34  1  0
 15 35  1  0
 35 36  2  0
 36 37  1  0
 37 38  2  0
 38 39  1  0
 39 40  2  0
 10  5  2  0
 34 17  2  0
 40 35  1  0
 14  8  1  0
 32 26  1  0
  1 41  1  0
  1 42  1  0
  1 43  1  0
  6 44  1  0
  7 45  1  0
 10 46  1  0
 11 47  1  0
 16 48  1  0
 18 49  1  0
 19 50  1  0
 22 51  1  0
 22 52  1  0
 22 53  1  0
 25 54  1  0
 25 55  1  0
 27 56  1  0
 27 57  1  0
 28 58  1  0
 28 59  1  0
 30 60  1  0
 30 61  1  0
 30 62  1  0
 31 63  1  0
 31 64  1  0
 32 65  1  0
 32 66  1  0
 33 67  1  0
 34 68  1  0
 36 69  1  0
 37 70  1  0
 38 71  1  0
 39 72  1  0
 40 73  1  0
M  END
>  <meeko>  (4) 
{"is_sidechain": false}

>  <vina_affinity_kcal_mol>  (4) 
-9.556

>  <pose_rank>  (4) 
4

$$$$

     RDKit          3D

 73 77  0  0  0  0  0  0  0  0999 V2000
  -16.5310   -1.0370   -5.9440 C   0  0  0  0  0  0  0  0  0  0  0  0
  -15.4680   -0.2680   -6.5100 O   0  0  0  0  0  0  0  0  0  0  0  0
  -15.8340    0.4710   -7.5850 C   0  0  0  0  0  0  0  0  0  0  0  0
  -16.8870    1.0750   -7.7140 O   0  0  0  0  0  0  0  0  0  0  0  0
  -14.7680    0.4590   -8.6220 C   0  0  0  0  0  0  0  0  0  0  0  0
  -14.7000    1.4280   -9.6470 C   0  0  0  0  0  0  0  0  0  0  0  0
  -13.6820    1.3940  -10.6120 C   0  0  0  0  0  0  0  0  0  0  0  0
  -12.7390    0.3810  -10.5560 C   0  0  0  0  0  0  0  0  0  0  0  0
  -12.8130   -0.5610   -9.5210 C   0  0  0  0  0  0  0  0  0  0  0  0
  -13.8030   -0.5540   -8.5560 C   0  0  0  0  0  0  0  0  0  0  0  0
  -11.7610   -1.4650   -9.5990 N   0  0  0  0  0  0  0  0  0  0  0  0
  -10.9300   -1.1770  -10.6630 C   0  0  0  0  0  0  0  0  0  0  0  0
   -9.9090   -1.7630  -10.9750 O   0  0  0  0  0  0  0  0  0  0  0  0
  -11.5500    0.0200  -11.3530 C   0  0  0  0  0  0  0  0  0  0  0  0
  -10.9910    0.5240  -12.4820 C   0  0  0  0  0  0  0  0  0  0  0  0
   -9.7980    0.0380  -13.0140 N   0  0  0  0  0  0  0  0  0  0  0  0
   -8.8290    0.5240  -13.9080 C   0  0  0  0  0  0  0  0  0  0  0  0
   -7.9190    1.4740  -13.4250 C   0  0  0  0  0  0  0  0  0  0  0  0
   -6.9400    2.0550  -14.2470 C   0  0  0  0  0  0  0  0  0  0  0  0
   -6.8180    1.7120  -15.5960 C   0  0  0  0  0  0  0  0  0  0  0  0
   -5.8350    2.3230  -16.4650 N   0  0  0  0  0  0  0  0  0  0  0  0
   -4.6110    1.5680  -16.7350 C   0  0  0  0  0  0  0  0  0  0  0  0
   -5.9820    3.6400  -16.9540 C   0  0  0  0  0  0  0  0  0  0  0  0
   -5.3260    4.6000  -16.5450 O   0  0  0  0  0  0  0  0  0  0  0  0
   -7.0450    3.8210  -18.0660 C   0  0  0  0  0  0  0  0  0  0  0  0
   -8.0710    4.8210  -17.7120 N   0  0  0  0  0  0  0  0  0  0  0  0
   -8.4220    5.6650  -18.8690 C   0  0  0  0  0  0  0  0  0  0  0  0
   -9.8100    6.3530  -18.7700 C   0  0  0  0  0  0  0  0  0  0  0  0
  -10.3190    6.5740  -17.4050 N   0  0  0  0  0  0  0  0  0  0  0  0
   -9.5220    7.5890  -16.7130 C   0  0  0  0  0  0  0  0  0  0  0  0
  -10.3010    5.2970  -16.6550 C   0  0  0  0  0  0  0  0  0  0  0  0
   -9.2800    4.2250  -17.1290 C   0  0  0  0  0  0  0  0  0  0  0  0
   -7.7470    0.7790  -16.0830 C   0  0  0  0  0  0  0  0  0  0  0  0
   -8.7280    0.2000  -15.2550 C   0  0  0  0  0  0  0  0  0  0  0  0
  -11.6360    1.6860  -13.1230 C   0  0  0  0  0  0  0  0  0  0  0  0
  -12.7790    1.5160  -13.9210 C   0  0  0  0  0  0  0  0  0  0  0  0
  -13.3950    2.6200  -14.5150 C   0  0  0  0  0  0  0  0  0  0  0  0
  -12.8730    3.8980  -14.3170 C   0  0  0  0  0  0  0  0  0  0  0  0
  -11.7360    4.0770  -13.5290 C   0  0  0  0  0  0  0  0  0  0  0  0
  -11.1180    2.9750  -12.9330 C   0  0  0  0  0  0  0  0  0  0  0  0
  -16.4709   -0.9935   -4.8465 H   0  0  0  0  0  0  0  0  0  0  0  0
  -17.4966   -0.6270   -6.2749 H   0  0  0  0  0  0  0  0  0  0  0  0
  -16.4438   -2.0824   -6.2749 H   0  0  0  0  0  0  0  0  0  0  0  0
  -15.4585    2.2235   -9.6896 H   0  0  0  0  0  0  0  0  0  0  0  0
  -13.6336    2.1596  -11.4004 H   0  0  0  0  0  0  0  0  0  0  0  0
  -13.8318   -1.3171   -7.7643 H   0  0  0  0  0  0  0  0  0  0  0  0
  -11.5810   -2.2230   -8.9570 H   0  0  0  0  0  0  0  0  0  0  0  0
   -9.6130   -0.9330  -12.7400 H   0  0  0  0  0  0  0  0  0  0  0  0
   -7.9734    1.7741  -12.3681 H   0  0  0  0  0  0  0  0  0  0  0  0
   -6.2521    2.7986  -13.8183 H   0  0  0  0  0  0  0  0  0  0  0  0
   -4.1414    1.2783  -15.7834 H   0  0  0  0  0  0  0  0  0  0  0  0
   -4.8572    0.6646  -17.3123 H   0  0  0  0  0  0  0  0  0  0  0  0
   -3.9142    2.1935  -17.3123 H   0  0  0  0  0  0  0  0  0  0  0  0
   -6.5394    4.1458  -18.9874 H   0  0  0  0  0  0  0  0  0  0  0  0
   -7.5535    2.8551  -18.2016 H   0  0  0  0  0  0  0  0  0  0  0  0
   -7.6567    6.4491  -18.9664 H   0  0  0  0  0  0  0  0  0  0  0  0
   -8.4675    4.9956  -19.7407 H   0  0  0  0  0  0  0  0  0  0  0  0
   -9.7378    7.3321  -19.2662 H   0  0  0  0  0  0  0  0  0  0  0  0
  -10.5211    5.6621  -19.2464 H   0  0  0  0  0  0  0  0  0  0  0  0
   -9.6251    7.4577  -15.6257 H   0  0  0  0  0  0  0  0  0  0  0  0
   -8.4647    7.4812  -16.9967 H   0  0  0  0  0  0  0  0  0  0  0  0
   -9.8775    8.5906  -16.9967 H   0  0  0  0  0  0  0  0  0  0  0  0
  -10.0757    5.5306  -15.6040 H   0  0  0  0  0  0  0  0  0  0  0  0
  -11.2912    4.8483  -16.8230 H   0  0  0  0  0  0  0  0  0  0  0  0
   -8.9887    3.6087  -16.2657 H   0  0  0  0  0  0  0  0  0  0  0  0
   -9.7660    3.6217  -17.9099 H   0  0  0  0  0  0  0  0  0  0  0  0
   -7.7075    0.4913  -17.1440 H   0  0  0  0  0  0  0  0  0  0  0  0
   -9.4320   -0.5272  -15.6858 H   0  0  0  0  0  0  0  0  0  0  0  0
  -13.1912    0.5085  -14.0791 H   0  0  0  0  0  0  0  0  0  0  0  0
  -14.2908    2.4815  -15.1382 H   0  0  0  0  0  0  0  0  0  0  0  0
  -13.3593    4.7674  -14.7836 H   0  0  0  0  0  0  0  0  0  0  0  0
  -11.3258    5.0863  -13.3768 H   0  0  0  0  0  0  0  0  0  0  0  0
  -10.2214    3.1191  -12.3122 H   0  0  0  0  0  0  0  0  0  0  0  0
  1  2  1  0
  2  3  1  0
  3  4  2  0
  3  5  1  0
  5  6  1  0
  6  7  2  0
  7  8  1  0
  8  9  2  0
  9 10  1  0
  9 11  1  0
 11 12  1  0
 12 13  2  0
 12 14  1  0
 14 15  2  0
 15 16  1  0
 16 17  1  0
 17 18  1  0
 18 19  2  0
 19 20  1  0
 20 21  1  0
 21 22  1  0
 21 23  1  0
 23 24  2  0
 23 25  1  0
 25 26  1  0
 26 27  1  0
 27 28  1  0
 28 29  1  0
 29 30  1  0
 29 31  1  0
 31 32  1  0
 20 33  2  0
 33 34  1  0
 15 35  1  0
 35 36  2  0
 36 37  1  0
 37 38  2  0
 38 39  1  0
 39 40  2  0
 10  5  2  0
 34 17  2  0
 40 35  1  0
 14  8  1  0
 32 26  1  0
  1 41  1  0
  1 42  1  0
  1 43  1  0
  6 44  1  0
  7 45  1  0
 10 46  1  0
 11 47  1  0
 16 48  1  0
 18 49  1  0
 19 50  1  0
 22 51  1  0
 22 52  1  0
 22 53  1  0
 25 54  1  0
 25 55  1  0
 27 56  1  0
 27 57  1  0
 28 58  1  0
 28 59  1  0
 30 60  1  0
 30 61  1  0
 30 62  1  0
 31 63  1  0
 31 64  1  0
 32 65  1  0
 32 66  1  0
 33 67  1  0
 34 68  1  0
 36 69  1  0
 37 70  1  0
 38 71  1  0
 39 72  1  0
 40 73  1  0
M  END
>  <meeko>  (5) 
{"is_sidechain": false}

>  <vina_affinity_kcal_mol>  (5) 
-9.411

>  <pose_rank>  (5) 
5

$$$$

     RDKit          3D

 73 77  0  0  0  0  0  0  0  0999 V2000
  -10.0310    8.2100  -20.6840 C   0  0  0  0  0  0  0  0  0  0  0  0
   -9.7230    7.8940  -19.3250 O   0  0  0  0  0  0  0  0  0  0  0  0
   -9.0640    6.7200  -19.1680 C   0  0  0  0  0  0  0  0  0  0  0  0
   -8.1350    6.3230  -19.8540 O   0  0  0  0  0  0  0  0  0  0  0  0
   -9.6250    5.9480  -18.0270 C   0  0  0  0  0  0  0  0  0  0  0  0
   -8.8940    4.9350  -17.3690 C   0  0  0  0  0  0  0  0  0  0  0  0
   -9.4470    4.2230  -16.2930 C   0  0  0  0  0  0  0  0  0  0  0  0
  -10.7370    4.5200  -15.8860 C   0  0  0  0  0  0  0  0  0  0  0  0
  -11.4400    5.5400  -16.5400 C   0  0  0  0  0  0  0  0  0  0  0  0
  -10.9220    6.2600  -17.6020 C   0  0  0  0  0  0  0  0  0  0  0  0
  -12.6900    5.7280  -15.9650 N   0  0  0  0  0  0  0  0  0  0  0  0
  -12.8870    4.8680  -14.9030 C   0  0  0  0  0  0  0  0  0  0  0  0
  -13.8650    4.8100  -14.1790 O   0  0  0  0  0  0  0  0  0  0  0  0
  -11.6350    4.0200  -14.8260 C   0  0  0  0  0  0  0  0  0  0  0  0
  -11.5350    3.0290  -13.9040 C   0  0  0  0  0  0  0  0  0  0  0  0
  -12.5170    2.7930  -12.9430 N   0  0  0  0  0  0  0  0  0  0  0  0
  -12.7040    1.8560  -11.9130 C   0  0  0  0  0  0  0  0  0  0  0  0
  -13.9700    1.7900  -11.3180 C   0  0  0  0  0  0  0  0  0  0  0  0
  -14.2500    0.9190  -10.2520 C   0  0  0  0  0  0  0  0  0  0  0  0
  -13.2750    0.0650   -9.7290 C   0  0  0  0  0  0  0  0  0  0  0  0
  -13.5380   -0.8170   -8.6120 N   0  0  0  0  0  0  0  0  0  0  0  0
  -12.7330   -0.6330   -7.4030 C   0  0  0  0  0  0  0  0  0  0  0  0
  -14.4530   -1.8900   -8.7020 C   0  0  0  0  0  0  0  0  0  0  0  0
  -14.7760   -2.4270   -9.7640 O   0  0  0  0  0  0  0  0  0  0  0  0
  -15.0480   -2.3700   -7.3560 C   0  0  0  0  0  0  0  0  0  0  0  0
  -16.4350   -1.9080   -7.1530 N   0  0  0  0  0  0  0  0  0  0  0  0
  -17.1470   -2.7550   -6.1770 C   0  0  0  0  0  0  0  0  0  0  0  0
  -18.3710   -2.0770   -5.5050 C   0  0  0  0  0  0  0  0  0  0  0  0
  -19.0090   -0.9960   -6.2770 N   0  0  0  0  0  0  0  0  0  0  0  0
  -19.6800   -1.5340   -7.4620 C   0  0  0  0  0  0  0  0  0  0  0  0
  -17.9890    0.0060   -6.6660 C   0  0  0  0  0  0  0  0  0  0  0  0
  -16.5210   -0.4950   -6.7620 C   0  0  0  0  0  0  0  0  0  0  0  0
  -12.0010    0.1510  -10.3110 C   0  0  0  0  0  0  0  0  0  0  0  0
  -11.7250    1.0260  -11.3790 C   0  0  0  0  0  0  0  0  0  0  0  0
  -10.2990    2.2240  -13.8730 C   0  0  0  0  0  0  0  0  0  0  0  0
   -9.1350    2.7290  -13.2710 C   0  0  0  0  0  0  0  0  0  0  0  0
   -7.9710    1.9590  -13.2310 C   0  0  0  0  0  0  0  0  0  0  0  0
   -7.9620    0.6820  -13.7920 C   0  0  0  0  0  0  0  0  0  0  0  0
   -9.1120    0.1730  -14.3950 C   0  0  0  0  0  0  0  0  0  0  0  0
  -10.2790    0.9410  -14.4370 C   0  0  0  0  0  0  0  0  0  0  0  0
  -10.7985    8.9975  -20.7125 H   0  0  0  0  0  0  0  0  0  0  0  0
   -9.1226    8.5648  -21.1929 H   0  0  0  0  0  0  0  0  0  0  0  0
  -10.4090    7.3110  -21.1929 H   0  0  0  0  0  0  0  0  0  0  0  0
   -7.8735    4.6996  -17.7054 H   0  0  0  0  0  0  0  0  0  0  0  0
   -8.8653    3.4420  -15.7815 H   0  0  0  0  0  0  0  0  0  0  0  0
  -11.5084    7.0495  -18.0948 H   0  0  0  0  0  0  0  0  0  0  0  0
  -13.3740    6.4170  -16.2420 H   0  0  0  0  0  0  0  0  0  0  0  0
  -13.3300    3.4080  -13.0530 H   0  0  0  0  0  0  0  0  0  0  0  0
  -14.7711    2.4413  -11.6976 H   0  0  0  0  0  0  0  0  0  0  0  0
  -15.2609    0.9088   -9.8185 H   0  0  0  0  0  0  0  0  0  0  0  0
  -13.3663   -0.7777   -6.5153 H   0  0  0  0  0  0  0  0  0  0  0  0
  -11.9138   -1.3671   -7.3927 H   0  0  0  0  0  0  0  0  0  0  0  0
  -12.3141    0.3841   -7.3927 H   0  0  0  0  0  0  0  0  0  0  0  0
  -15.0365   -3.4698   -7.3377 H   0  0  0  0  0  0  0  0  0  0  0  0
  -14.4332   -1.9450   -6.5489 H   0  0  0  0  0  0  0  0  0  0  0  0
  -17.4980   -3.6580   -6.6980 H   0  0  0  0  0  0  0  0  0  0  0  0
  -16.4301   -2.9729   -5.3717 H   0  0  0  0  0  0  0  0  0  0  0  0
  -19.1285   -2.8533   -5.3217 H   0  0  0  0  0  0  0  0  0  0  0  0
  -17.9854   -1.6035   -4.5901 H   0  0  0  0  0  0  0  0  0  0  0  0
  -20.5029   -2.1938   -7.1496 H   0  0  0  0  0  0  0  0  0  0  0  0
  -20.0824   -0.7055   -8.0633 H   0  0  0  0  0  0  0  0  0  0  0  0
  -18.9588   -2.1069   -8.0633 H   0  0  0  0  0  0  0  0  0  0  0  0
  -18.2710    0.4034   -7.6522 H   0  0  0  0  0  0  0  0  0  0  0  0
  -17.9889    0.7490   -5.8548 H   0  0  0  0  0  0  0  0  0  0  0  0
  -15.9892    0.1113   -7.5101 H   0  0  0  0  0  0  0  0  0  0  0  0
  -16.0672   -0.3952   -5.7650 H   0  0  0  0  0  0  0  0  0  0  0  0
  -11.1928   -0.4850   -9.9207 H   0  0  0  0  0  0  0  0  0  0  0  0
  -10.7096    1.0535  -11.8013 H   0  0  0  0  0  0  0  0  0  0  0  0
   -9.1404    3.7362  -12.8288 H   0  0  0  0  0  0  0  0  0  0  0  0
   -7.0622    2.3589  -12.7576 H   0  0  0  0  0  0  0  0  0  0  0  0
   -7.0454    0.0747  -13.7587 H   0  0  0  0  0  0  0  0  0  0  0  0
   -9.1005   -0.8338  -14.8379 H   0  0  0  0  0  0  0  0  0  0  0  0
  -11.1843    0.5374  -14.9140 H   0  0  0  0  0  0  0  0  0  0  0  0
  1  2  1  0
  2  3  1  0
  3  4  2  0
  3  5  1  0
  5  6  1  0
  6  7  2  0
  7  8  1  0
  8  9  2  0
  9 10  1  0
  9 11  1  0
 11 12  1  0
 12 13  2  0
 12 14  1  0
 14 15  2  0
 15 16  1  0
 16 17  1  0
 17 18  1  0
 18 19  2  0
 19 20  1  0
 20 21  1  0
 21 22  1  0
 21 23  1  0
 23 24  2  0
 23 25  1  0
 25 26  1  0
 26 27  1  0
 27 28  1  0
 28 29  1  0
 29 30  1  0
 29 31  1  0
 31 32  1  0
 20 33  2  0
 33 34  1  0
 15 35  1  0
 35 36  2  0
 36 37  1  0
 37 38  2  0
 38 39  1  0
 39 40  2  0
 10  5  2  0
 34 17  2  0
 40 35  1  0
 14  8  1  0
 32 26  1  0
  1 41  1  0
  1 42  1  0
  1 43  1  0
  6 44  1  0
  7 45  1  0
 10 46  1  0
 11 47  1  0
 16 48  1  0
 18 49  1  0
 19 50  1  0
 22 51  1  0
 22 52  1  0
 22 53  1  0
 25 54  1  0
 25 55  1  0
 27 56  1  0
 27 57  1  0
 28 58  1  0
 28 59  1  0
 30 60  1  0
 30 61  1  0
 30 62  1  0
 31 63  1  0
 31 64  1  0
 32 65  1  0
 32 66  1  0
 33 67  1  0
 34 68  1  0
 36 69  1  0
 37 70  1  0
 38 71  1  0
 39 72  1  0
 40 73  1  0
M  END
>  <meeko>  (6) 
{"is_sidechain": false}

>  <vina_affinity_kcal_mol>  (6) 
-9.349

>  <pose_rank>  (6) 
6

$$$$

     RDKit          3D

 73 77  0  0  0  0  0  0  0  0999 V2000
   -9.9810    7.3760  -22.0790 C   0  0  0  0  0  0  0  0  0  0  0  0
   -9.5980    6.4560  -21.0560 O   0  0  0  0  0  0  0  0  0  0  0  0
   -9.8990    6.8700  -19.8010 C   0  0  0  0  0  0  0  0  0  0  0  0
  -10.5050    7.8890  -19.5100 O   0  0  0  0  0  0  0  0  0  0  0  0
   -9.3890    5.9070  -18.7890 C   0  0  0  0  0  0  0  0  0  0  0  0
  -10.2400    5.2550  -17.8700 C   0  0  0  0  0  0  0  0  0  0  0  0
   -9.7310    4.3490  -16.9260 C   0  0  0  0  0  0  0  0  0  0  0  0
   -8.3680    4.1060  -16.8980 C   0  0  0  0  0  0  0  0  0  0  0  0
   -7.5420    4.7490  -17.8300 C   0  0  0  0  0  0  0  0  0  0  0  0
   -8.0130    5.6450  -18.7720 C   0  0  0  0  0  0  0  0  0  0  0  0
   -6.2210    4.3450  -17.6820 N   0  0  0  0  0  0  0  0  0  0  0  0
   -6.0910    3.4160  -16.6690 C   0  0  0  0  0  0  0  0  0  0  0  0
   -5.0700    2.8510  -16.3200 O   0  0  0  0  0  0  0  0  0  0  0  0
   -7.4810    3.2440  -16.0920 C   0  0  0  0  0  0  0  0  0  0  0  0
   -7.6840    2.4220  -15.0310 C   0  0  0  0  0  0  0  0  0  0  0  0
   -6.6700    1.6430  -14.4770 N   0  0  0  0  0  0  0  0  0  0  0  0
   -6.2040    0.3300  -14.6580 C   0  0  0  0  0  0  0  0  0  0  0  0
   -6.3560   -0.2430  -15.9260 C   0  0  0  0  0  0  0  0  0  0  0  0
   -5.9640   -1.5640  -16.2010 C   0  0  0  0  0  0  0  0  0  0  0  0
   -5.3950   -2.3780  -15.2180 C   0  0  0  0  0  0  0  0  0  0  0  0
   -5.0130   -3.7500  -15.4750 N   0  0  0  0  0  0  0  0  0  0  0  0
   -5.8980   -4.8030  -14.9740 C   0  0  0  0  0  0  0  0  0  0  0  0
   -3.7840   -4.0840  -16.0870 C   0  0  0  0  0  0  0  0  0  0  0  0
   -3.6260   -5.0660  -16.8160 O   0  0  0  0  0  0  0  0  0  0  0  0
   -2.6080   -3.1240  -15.7850 C   0  0  0  0  0  0  0  0  0  0  0  0
   -2.3700   -2.1580  -16.8750 N   0  0  0  0  0  0  0  0  0  0  0  0
   -2.2760   -0.7790  -16.3620 C   0  0  0  0  0  0  0  0  0  0  0  0
   -1.5210    0.2070  -17.2930 C   0  0  0  0  0  0  0  0  0  0  0  0
   -1.5150   -0.1410  -18.7250 N   0  0  0  0  0  0  0  0  0  0  0  0
   -2.8560    0.0020  -19.2970 C   0  0  0  0  0  0  0  0  0  0  0  0
   -1.0190   -1.5260  -18.8980 C   0  0  0  0  0  0  0  0  0  0  0  0
   -1.1890   -2.4840  -17.6860 C   0  0  0  0  0  0  0  0  0  0  0  0
   -5.2670   -1.8090  -13.9420 C   0  0  0  0  0  0  0  0  0  0  0  0
   -5.6620   -0.4850  -13.6710 C   0  0  0  0  0  0  0  0  0  0  0  0
   -9.0540    2.2930  -14.4980 C   0  0  0  0  0  0  0  0  0  0  0  0
   -9.6150    3.3190  -13.7200 C   0  0  0  0  0  0  0  0  0  0  0  0
  -10.9160    3.2000  -13.2290 C   0  0  0  0  0  0  0  0  0  0  0  0
  -11.6650    2.0570  -13.5110 C   0  0  0  0  0  0  0  0  0  0  0  0
  -11.1150    1.0320  -14.2810 C   0  0  0  0  0  0  0  0  0  0  0  0
   -9.8130    1.1480  -14.7740 C   0  0  0  0  0  0  0  0  0  0  0  0
  -10.3648    8.2980  -21.6180 H   0  0  0  0  0  0  0  0  0  0  0  0
   -9.1074    7.6145  -22.7035 H   0  0  0  0  0  0  0  0  0  0  0  0
  -10.7657    6.9241  -22.7035 H   0  0  0  0  0  0  0  0  0  0  0  0
  -11.3204    5.4605  -17.8941 H   0  0  0  0  0  0  0  0  0  0  0  0
  -10.4040    3.8404  -16.2200 H   0  0  0  0  0  0  0  0  0  0  0  0
   -7.3313    6.1347  -19.4829 H   0  0  0  0  0  0  0  0  0  0  0  0
   -5.4420    4.6480  -18.2470 H   0  0  0  0  0  0  0  0  0  0  0  0
   -6.1880    2.1180  -13.7050 H   0  0  0  0  0  0  0  0  0  0  0  0
   -6.7966    0.3604  -16.7333 H   0  0  0  0  0  0  0  0  0  0  0  0
   -6.1085   -1.9670  -17.2143 H   0  0  0  0  0  0  0  0  0  0  0  0
   -5.8913   -4.7950  -13.8740 H   0  0  0  0  0  0  0  0  0  0  0  0
   -6.9214   -4.6247  -15.3357 H   0  0  0  0  0  0  0  0  0  0  0  0
   -5.5463   -5.7805  -15.3357 H   0  0  0  0  0  0  0  0  0  0  0  0
   -2.8354   -2.5671  -14.8640 H   0  0  0  0  0  0  0  0  0  0  0  0
   -1.6992   -3.7342  -15.6761 H   0  0  0  0  0  0  0  0  0  0  0  0
   -3.2971   -0.3976  -16.2143 H   0  0  0  0  0  0  0  0  0  0  0  0
   -1.6960   -0.8325  -15.4289 H   0  0  0  0  0  0  0  0  0  0  0  0
   -1.9898    1.1965  -17.1880 H   0  0  0  0  0  0  0  0  0  0  0  0
   -0.4691    0.1744  -16.9730 H   0  0  0  0  0  0  0  0  0  0  0  0
   -3.5943    0.0807  -18.4854 H   0  0  0  0  0  0  0  0  0  0  0  0
   -2.8951    0.9094  -19.9176 H   0  0  0  0  0  0  0  0  0  0  0  0
   -3.0856   -0.8768  -19.9176 H   0  0  0  0  0  0  0  0  0  0  0  0
   -1.5554   -1.9683  -19.7504 H   0  0  0  0  0  0  0  0  0  0  0  0
    0.0675   -1.4287  -19.0398 H   0  0  0  0  0  0  0  0  0  0  0  0
   -1.2912   -3.5131  -18.0609 H   0  0  0  0  0  0  0  0  0  0  0  0
   -0.3017   -2.3744  -17.0451 H   0  0  0  0  0  0  0  0  0  0  0  0
   -4.8448   -2.4163  -13.1278 H   0  0  0  0  0  0  0  0  0  0  0  0
   -5.5387   -0.0858  -12.6534 H   0  0  0  0  0  0  0  0  0  0  0  0
   -9.0261    4.2208  -13.4966 H   0  0  0  0  0  0  0  0  0  0  0  0
  -11.3506    4.0066  -12.6202 H   0  0  0  0  0  0  0  0  0  0  0  0
  -12.6910    1.9640  -13.1254 H   0  0  0  0  0  0  0  0  0  0  0  0
  -11.7072    0.1313  -14.5003 H   0  0  0  0  0  0  0  0  0  0  0  0
   -9.3823    0.3379  -15.3808 H   0  0  0  0  0  0  0  0  0  0  0  0
  1  2  1  0
  2  3  1  0
  3  4  2  0
  3  5  1  0
  5  6  1  0
  6  7  2  0
  7  8  1  0
  8  9  2  0
  9 10  1  0
  9 11  1  0
 11 12  1  0
 12 13  2  0
 12 14  1  0
 14 15  2  0
 15 16  1  0
 16 17  1  0
 17 18  1  0
 18 19  2  0
 19 20  1  0
 20 21  1  0
 21 22  1  0
 21 23  1  0
 23 24  2  0
 23 25  1  0
 25 26  1  0
 26 27  1  0
 27 28  1  0
 28 29  1  0
 29 30  1  0
 29 31  1  0
 31 32  1  0
 20 33  2  0
 33 34  1  0
 15 35  1  0
 35 36  2  0
 36 37  1  0
 37 38  2  0
 38 39  1  0
 39 40  2  0
 10  5  2  0
 34 17  2  0
 40 35  1  0
 14  8  1  0
 32 26  1  0
  1 41  1  0
  1 42  1  0
  1 43  1  0
  6 44  1  0
  7 45  1  0
 10 46  1  0
 11 47  1  0
 16 48  1  0
 18 49  1  0
 19 50  1  0
 22 51  1  0
 22 52  1  0
 22 53  1  0
 25 54  1  0
 25 55  1  0
 27 56  1  0
 27 57  1  0
 28 58  1  0
 28 59  1  0
 30 60  1  0
 30 61  1  0
 30 62  1  0
 31 63  1  0
 31 64  1  0
 32 65  1  0
 32 66  1  0
 33 67  1  0
 34 68  1  0
 36 69  1  0
 37 70  1  0
 38 71  1  0
 39 72  1  0
 40 73  1  0
M  END
>  <meeko>  (7) 
{"is_sidechain": false}

>  <vina_affinity_kcal_mol>  (7) 
-9.155

>  <pose_rank>  (7) 
7

$$$$

     RDKit          3D

 73 77  0  0  0  0  0  0  0  0999 V2000
   -9.2310    8.9400  -19.4990 C   0  0  0  0  0  0  0  0  0  0  0  0
   -9.9530    7.7070  -19.5160 O   0  0  0  0  0  0  0  0  0  0  0  0
   -9.1910    6.6190  -19.2530 C   0  0  0  0  0  0  0  0  0  0  0  0
   -8.2010    6.2700  -19.8790 O   0  0  0  0  0  0  0  0  0  0  0  0
   -9.7170    5.8750  -18.0780 C   0  0  0  0  0  0  0  0  0  0  0  0
   -8.9690    4.8720  -17.4230 C   0  0  0  0  0  0  0  0  0  0  0  0
   -9.4900    4.1860  -16.3140 C   0  0  0  0  0  0  0  0  0  0  0  0
  -10.7640    4.5010  -15.8700 C   0  0  0  0  0  0  0  0  0  0  0  0
  -11.4820    5.5110  -16.5220 C   0  0  0  0  0  0  0  0  0  0  0  0
  -10.9970    6.2050  -17.6160 C   0  0  0  0  0  0  0  0  0  0  0  0
  -12.7110    5.7200  -15.9090 N   0  0  0  0  0  0  0  0  0  0  0  0
  -12.8780    4.8840  -14.8230 C   0  0  0  0  0  0  0  0  0  0  0  0
  -13.8300    4.8480  -14.0650 O   0  0  0  0  0  0  0  0  0  0  0  0
  -11.6290    4.0290  -14.7700 C   0  0  0  0  0  0  0  0  0  0  0  0
  -11.5040    3.0580  -13.8300 C   0  0  0  0  0  0  0  0  0  0  0  0
  -12.4530    2.8490  -12.8320 N   0  0  0  0  0  0  0  0  0  0  0  0
  -12.6890    1.8550  -11.8680 C   0  0  0  0  0  0  0  0  0  0  0  0
  -13.9750    1.7750  -11.3190 C   0  0  0  0  0  0  0  0  0  0  0  0
  -14.3040    0.8460  -10.3180 C   0  0  0  0  0  0  0  0  0  0  0  0
  -13.3600   -0.0540   -9.8150 C   0  0  0  0  0  0  0  0  0  0  0  0
  -13.6730   -0.9960   -8.7630 N   0  0  0  0  0  0  0  0  0  0  0  0
  -13.9920   -0.4520   -7.4420 C   0  0  0  0  0  0  0  0  0  0  0  0
  -13.5720   -2.3930   -8.9520 C   0  0  0  0  0  0  0  0  0  0  0  0
  -14.1300   -3.0020   -9.8670 O   0  0  0  0  0  0  0  0  0  0  0  0
  -12.6970   -3.1420   -7.9180 C   0  0  0  0  0  0  0  0  0  0  0  0
  -11.2740   -2.7610   -7.9970 N   0  0  0  0  0  0  0  0  0  0  0  0
  -10.5070   -3.3030   -6.8600 C   0  0  0  0  0  0  0  0  0  0  0  0
   -8.9800   -3.4250   -7.1100 C   0  0  0  0  0  0  0  0  0  0  0  0
   -8.4200   -2.5070   -8.1170 N   0  0  0  0  0  0  0  0  0  0  0  0
   -8.4530   -1.1260   -7.6320 C   0  0  0  0  0  0  0  0  0  0  0  0
   -9.1800   -2.6340   -9.3820 C   0  0  0  0  0  0  0  0  0  0  0  0
  -10.6440   -3.1450   -9.2680 C   0  0  0  0  0  0  0  0  0  0  0  0
  -12.0660    0.0460  -10.3490 C   0  0  0  0  0  0  0  0  0  0  0  0
  -11.7410    0.9790  -11.3520 C   0  0  0  0  0  0  0  0  0  0  0  0
  -10.2720    2.2460  -13.8230 C   0  0  0  0  0  0  0  0  0  0  0  0
  -10.2570    0.9680  -14.4070 C   0  0  0  0  0  0  0  0  0  0  0  0
   -9.0860    0.2080  -14.4110 C   0  0  0  0  0  0  0  0  0  0  0  0
   -7.9240    0.7170  -13.8330 C   0  0  0  0  0  0  0  0  0  0  0  0
   -7.9290    1.9840  -13.2480 C   0  0  0  0  0  0  0  0  0  0  0  0
   -9.0990    2.7470  -13.2420 C   0  0  0  0  0  0  0  0  0  0  0  0
   -9.0520    9.2457  -18.4576 H   0  0  0  0  0  0  0  0  0  0  0  0
   -8.2676    8.8079  -20.0131 H   0  0  0  0  0  0  0  0  0  0  0  0
   -9.8177    9.7156  -20.0131 H   0  0  0  0  0  0  0  0  0  0  0  0
   -7.9613    4.6240  -17.7877 H   0  0  0  0  0  0  0  0  0  0  0  0
   -8.8965    3.4114  -15.8063 H   0  0  0  0  0  0  0  0  0  0  0  0
  -11.5952    6.9878  -18.1053 H   0  0  0  0  0  0  0  0  0  0  0  0
  -13.4000    6.4070  -16.1780 H   0  0  0  0  0  0  0  0  0  0  0  0
  -13.1980    3.5540  -12.8450 H   0  0  0  0  0  0  0  0  0  0  0  0
  -14.7528    2.4621  -11.6836 H   0  0  0  0  0  0  0  0  0  0  0  0
  -15.3294    0.8263   -9.9203 H   0  0  0  0  0  0  0  0  0  0  0  0
  -13.5985   -1.1231   -6.6643 H   0  0  0  0  0  0  0  0  0  0  0  0
  -13.5339    0.5423   -7.3345 H   0  0  0  0  0  0  0  0  0  0  0  0
  -15.0834   -0.3664   -7.3345 H   0  0  0  0  0  0  0  0  0  0  0  0
  -13.0682   -2.9104   -6.9088 H   0  0  0  0  0  0  0  0  0  0  0  0
  -12.7668   -4.2173   -8.1391 H   0  0  0  0  0  0  0  0  0  0  0  0
  -10.6612   -2.6408   -5.9953 H   0  0  0  0  0  0  0  0  0  0  0  0
  -10.8780   -4.3249   -6.6926 H   0  0  0  0  0  0  0  0  0  0  0  0
   -8.4656   -3.2346   -6.1565 H   0  0  0  0  0  0  0  0  0  0  0  0
   -8.8225   -4.4380   -7.5087 H   0  0  0  0  0  0  0  0  0  0  0  0
   -8.4531   -1.1236   -6.5320 H   0  0  0  0  0  0  0  0  0  0  0  0
   -7.5675   -0.5869   -7.9998 H   0  0  0  0  0  0  0  0  0  0  0  0
   -9.3633   -0.6299   -7.9998 H   0  0  0  0  0  0  0  0  0  0  0  0
   -9.2092   -1.6411   -9.8545 H   0  0  0  0  0  0  0  0  0  0  0  0
   -8.6494   -3.4032   -9.9624 H   0  0  0  0  0  0  0  0  0  0  0  0
  -11.2316   -2.7212  -10.0957 H   0  0  0  0  0  0  0  0  0  0  0  0
  -10.6201   -4.2439   -9.3120 H   0  0  0  0  0  0  0  0  0  0  0  0
  -11.2808   -0.6258   -9.9720 H   0  0  0  0  0  0  0  0  0  0  0  0
  -10.7112    1.0157  -11.7369 H   0  0  0  0  0  0  0  0  0  0  0  0
  -11.1728    0.5643  -14.8634 H   0  0  0  0  0  0  0  0  0  0  0  0
   -9.0802   -0.7917  -14.8699 H   0  0  0  0  0  0  0  0  0  0  0  0
   -7.0010    0.1186  -13.8380 H   0  0  0  0  0  0  0  0  0  0  0  0
   -7.0109    2.3821  -12.7913 H   0  0  0  0  0  0  0  0  0  0  0  0
   -9.0998    3.7450  -12.7795 H   0  0  0  0  0  0  0  0  0  0  0  0
  1  2  1  0
  2  3  1  0
  3  4  2  0
  3  5  1  0
  5  6  1  0
  6  7  2  0
  7  8  1  0
  8  9  2  0
  9 10  1  0
  9 11  1  0
 11 12  1  0
 12 13  2  0
 12 14  1  0
 14 15  2  0
 15 16  1  0
 16 17  1  0
 17 18  1  0
 18 19  2  0
 19 20  1  0
 20 21  1  0
 21 22  1  0
 21 23  1  0
 23 24  2  0
 23 25  1  0
 25 26  1  0
 26 27  1  0
 27 28  1  0
 28 29  1  0
 29 30  1  0
 29 31  1  0
 31 32  1  0
 20 33  2  0
 33 34  1  0
 15 35  1  0
 35 36  2  0
 36 37  1  0
 37 38  2  0
 38 39  1  0
 39 40  2  0
 10  5  2  0
 34 17  2  0
 40 35  1  0
 14  8  1  0
 32 26  1  0
  1 41  1  0
  1 42  1  0
  1 43  1  0
  6 44  1  0
  7 45  1  0
 10 46  1  0
 11 47  1  0
 16 48  1  0
 18 49  1  0
 19 50  1  0
 22 51  1  0
 22 52  1  0
 22 53  1  0
 25 54  1  0
 25 55  1  0
 27 56  1  0
 27 57  1  0
 28 58  1  0
 28 59  1  0
 30 60  1  0
 30 61  1  0
 30 62  1  0
 31 63  1  0
 31 64  1  0
 32 65  1  0
 32 66  1  0
 33 67  1  0
 34 68  1  0
 36 69  1  0
 37 70  1  0
 38 71  1  0
 39 72  1  0
 40 73  1  0
M  END
>  <meeko>  (8) 
{"is_sidechain": false}

>  <vina_affinity_kcal_mol>  (8) 
-9.107

>  <pose_rank>  (8) 
8

$$$$

     RDKit          3D

 73 77  0  0  0  0  0  0  0  0999 V2000
  -10.1150    7.2900  -21.7780 C   0  0  0  0  0  0  0  0  0  0  0  0
   -9.3260    6.7000  -20.7430 O   0  0  0  0  0  0  0  0  0  0  0  0
   -9.3680    7.3730  -19.5680 C   0  0  0  0  0  0  0  0  0  0  0  0
   -9.2570    8.5810  -19.4300 O   0  0  0  0  0  0  0  0  0  0  0  0
   -9.5690    6.4370  -18.4300 C   0  0  0  0  0  0  0  0  0  0  0  0
   -8.5760    5.5210  -18.0200 C   0  0  0  0  0  0  0  0  0  0  0  0
   -8.7930    4.6490  -16.9420 C   0  0  0  0  0  0  0  0  0  0  0  0
  -10.0100    4.6900  -16.2820 C   0  0  0  0  0  0  0  0  0  0  0  0
  -10.9760    5.6180  -16.6920 C   0  0  0  0  0  0  0  0  0  0  0  0
  -10.7920    6.4900  -17.7490 C   0  0  0  0  0  0  0  0  0  0  0  0
  -12.1050    5.5460  -15.8850 N   0  0  0  0  0  0  0  0  0  0  0  0
  -11.9570    4.5910  -14.8990 C   0  0  0  0  0  0  0  0  0  0  0  0
  -12.7550    4.3150  -14.0210 O   0  0  0  0  0  0  0  0  0  0  0  0
  -10.5970    3.9680  -15.1350 C   0  0  0  0  0  0  0  0  0  0  0  0
  -10.1680    2.9470  -14.3510 C   0  0  0  0  0  0  0  0  0  0  0  0
  -10.8960    2.4770  -13.2600 N   0  0  0  0  0  0  0  0  0  0  0  0
  -10.9360    1.2810  -12.5240 C   0  0  0  0  0  0  0  0  0  0  0  0
  -10.3400    0.1490  -13.0930 C   0  0  0  0  0  0  0  0  0  0  0  0
  -10.3630   -1.1050  -12.4590 C   0  0  0  0  0  0  0  0  0  0  0  0
  -10.9820   -1.2880  -11.2200 C   0  0  0  0  0  0  0  0  0  0  0  0
  -11.0420   -2.5790  -10.5680 N   0  0  0  0  0  0  0  0  0  0  0  0
  -12.1780   -3.4450  -10.8860 C   0  0  0  0  0  0  0  0  0  0  0  0
  -10.1100   -2.9620   -9.5770 C   0  0  0  0  0  0  0  0  0  0  0  0
  -10.2550   -3.9410   -8.8420 O   0  0  0  0  0  0  0  0  0  0  0  0
   -8.8570   -2.0590   -9.4580 C   0  0  0  0  0  0  0  0  0  0  0  0
   -7.7250   -2.5530  -10.2660 N   0  0  0  0  0  0  0  0  0  0  0  0
   -6.9900   -1.4410  -10.8980 C   0  0  0  0  0  0  0  0  0  0  0  0
   -5.5300   -1.7790  -11.3030 C   0  0  0  0  0  0  0  0  0  0  0  0
   -5.2500   -3.2020  -11.5610 N   0  0  0  0  0  0  0  0  0  0  0  0
   -5.9250   -3.6500  -12.7810 C   0  0  0  0  0  0  0  0  0  0  0  0
   -5.6830   -4.0120  -10.3980 C   0  0  0  0  0  0  0  0  0  0  0  0
   -6.8030   -3.4080   -9.5060 C   0  0  0  0  0  0  0  0  0  0  0  0
  -11.6010   -0.1580  -10.6650 C   0  0  0  0  0  0  0  0  0  0  0  0
  -11.5760    1.0970  -11.3030 C   0  0  0  0  0  0  0  0  0  0  0  0
   -8.8390    2.3660  -14.6250 C   0  0  0  0  0  0  0  0  0  0  0  0
   -7.7160    2.7770  -13.8880 C   0  0  0  0  0  0  0  0  0  0  0  0
   -6.4630    2.2160  -14.1400 C   0  0  0  0  0  0  0  0  0  0  0  0
   -6.3230    1.2420  -15.1290 C   0  0  0  0  0  0  0  0  0  0  0  0
   -7.4310    0.8300  -15.8680 C   0  0  0  0  0  0  0  0  0  0  0  0
   -8.6860    1.3890  -15.6190 C   0  0  0  0  0  0  0  0  0  0  0  0
  -10.9190    7.8912  -21.3285 H   0  0  0  0  0  0  0  0  0  0  0  0
   -9.4788    7.9357  -22.4011 H   0  0  0  0  0  0  0  0  0  0  0  0
  -10.5545    6.4972  -22.4011 H   0  0  0  0  0  0  0  0  0  0  0  0
   -7.6153    5.4902  -18.5549 H   0  0  0  0  0  0  0  0  0  0  0  0
   -8.0094    3.9445  -16.6264 H   0  0  0  0  0  0  0  0  0  0  0  0
  -11.5782    7.2003  -18.0448 H   0  0  0  0  0  0  0  0  0  0  0  0
  -12.9280    6.1250  -15.9640 H   0  0  0  0  0  0  0  0  0  0  0  0
  -11.6230    3.1360  -12.9610 H   0  0  0  0  0  0  0  0  0  0  0  0
   -9.8379    0.2442  -14.0671 H   0  0  0  0  0  0  0  0  0  0  0  0
   -9.8818   -1.9635  -12.9504 H   0  0  0  0  0  0  0  0  0  0  0  0
  -12.6419   -3.7986   -9.9534 H   0  0  0  0  0  0  0  0  0  0  0  0
  -12.9175   -2.8794  -11.4718 H   0  0  0  0  0  0  0  0  0  0  0  0
  -11.8285   -4.3079  -11.4718 H   0  0  0  0  0  0  0  0  0  0  0  0
   -9.1184   -1.0464   -9.7990 H   0  0  0  0  0  0  0  0  0  0  0  0
   -8.5417   -2.0623   -8.4041 H   0  0  0  0  0  0  0  0  0  0  0  0
   -7.5363   -1.1396  -11.8039 H   0  0  0  0  0  0  0  0  0  0  0  0
   -6.9276   -0.6410  -10.1456 H   0  0  0  0  0  0  0  0  0  0  0  0
   -5.2951   -1.2172  -12.2191 H   0  0  0  0  0  0  0  0  0  0  0  0
   -4.9085   -1.5040  -10.4381 H   0  0  0  0  0  0  0  0  0  0  0  0
   -6.8138   -4.2399  -12.5127 H   0  0  0  0  0  0  0  0  0  0  0  0
   -6.2307   -2.7750  -13.3733 H   0  0  0  0  0  0  0  0  0  0  0  0
   -5.2374   -4.2716  -13.3733 H   0  0  0  0  0  0  0  0  0  0  0  0
   -6.0457   -4.9775  -10.7805 H   0  0  0  0  0  0  0  0  0  0  0  0
   -4.7990   -4.0791   -9.7468 H   0  0  0  0  0  0  0  0  0  0  0  0
   -7.3761   -4.2306   -9.0534 H   0  0  0  0  0  0  0  0  0  0  0  0
   -6.3208   -2.7830   -8.7399 H   0  0  0  0  0  0  0  0  0  0  0  0
  -12.1222   -0.2554   -9.7012 H   0  0  0  0  0  0  0  0  0  0  0  0
  -12.0747    1.9526  -10.8241 H   0  0  0  0  0  0  0  0  0  0  0  0
   -7.8247    3.5451  -13.1081 H   0  0  0  0  0  0  0  0  0  0  0  0
   -5.5871    2.5414  -13.5596 H   0  0  0  0  0  0  0  0  0  0  0  0
   -5.3360    0.7981  -15.3261 H   0  0  0  0  0  0  0  0  0  0  0  0
   -7.3164    0.0634  -16.6485 H   0  0  0  0  0  0  0  0  0  0  0  0
   -9.5577    1.0618  -16.2047 H   0  0  0  0  0  0  0  0  0  0  0  0
  1  2  1  0
  2  3  1  0
  3  4  2  0
  3  5  1  0
  5  6  1  0
  6  7  2  0
  7  8  1  0
  8  9  2  0
  9 10  1  0
  9 11  1  0
 11 12  1  0
 12 13  2  0
 12 14  1  0
 14 15  2  0
 15 16  1  0
 16 17  1  0
 17 18  1  0
 18 19  2  0
 19 20  1  0
 20 21  1  0
 21 22  1  0
 21 23  1  0
 23 24  2  0
 23 25  1  0
 25 26  1  0
 26 27  1  0
 27 28  1  0
 28 29  1  0
 29 30  1  0
 29 31  1  0
 31 32  1  0
 20 33  2  0
 33 34  1  0
 15 35  1  0
 35 36  2  0
 36 37  1  0
 37 38  2  0
 38 39  1  0
 39 40  2  0
 10  5  2  0
 34 17  2  0
 40 35  1  0
 14  8  1  0
 32 26  1  0
  1 41  1  0
  1 42  1  0
  1 43  1  0
  6 44  1  0
  7 45  1  0
 10 46  1  0
 11 47  1  0
 16 48  1  0
 18 49  1  0
 19 50  1  0
 22 51  1  0
 22 52  1  0
 22 53  1  0
 25 54  1  0
 25 55  1  0
 27 56  1  0
 27 57  1  0
 28 58  1  0
 28 59  1  0
 30 60  1  0
 30 61  1  0
 30 62  1  0
 31 63  1  0
 31 64  1  0
 32 65  1  0
 32 66  1  0
 33 67  1  0
 34 68  1  0
 36 69  1  0
 37 70  1  0
 38 71  1  0
 39 72  1  0
 40 73  1  0
M  END
>  <meeko>  (9) 
{"is_sidechain": false}

>  <vina_affinity_kcal_mol>  (9) 
-8.955

>  <pose_rank>  (9) 
9

$$$$

     RDKit          3D

 73 77  0  0  0  0  0  0  0  0999 V2000
  -10.1390    7.5290  -21.6350 C   0  0  0  0  0  0  0  0  0  0  0  0
   -9.3040    6.7640  -20.7650 O   0  0  0  0  0  0  0  0  0  0  0  0
   -9.3020    7.1970  -19.4810 C   0  0  0  0  0  0  0  0  0  0  0  0
   -9.2720    8.3630  -19.1190 O   0  0  0  0  0  0  0  0  0  0  0  0
   -9.3430    6.0500  -18.5350 C   0  0  0  0  0  0  0  0  0  0  0  0
  -10.4090    5.8540  -17.6310 C   0  0  0  0  0  0  0  0  0  0  0  0
  -10.4220    4.7620  -16.7500 C   0  0  0  0  0  0  0  0  0  0  0  0
   -9.3610    3.8730  -16.7700 C   0  0  0  0  0  0  0  0  0  0  0  0
   -8.3210    4.0740  -17.6870 C   0  0  0  0  0  0  0  0  0  0  0  0
   -8.2790    5.1390  -18.5670 C   0  0  0  0  0  0  0  0  0  0  0  0
   -7.3760    3.0600  -17.5940 N   0  0  0  0  0  0  0  0  0  0  0  0
   -7.7300    2.1310  -16.6360 C   0  0  0  0  0  0  0  0  0  0  0  0
   -7.1260    1.1140  -16.3430 O   0  0  0  0  0  0  0  0  0  0  0  0
   -9.0230    2.6380  -16.0330 C   0  0  0  0  0  0  0  0  0  0  0  0
   -9.6130    1.9650  -15.0130 C   0  0  0  0  0  0  0  0  0  0  0  0
   -9.1220    0.7540  -14.5270 N   0  0  0  0  0  0  0  0  0  0  0  0
   -9.2870    0.0100  -13.3460 C   0  0  0  0  0  0  0  0  0  0  0  0
   -8.1570   -0.6280  -12.8190 C   0  0  0  0  0  0  0  0  0  0  0  0
   -8.2210   -1.4310  -11.6680 C   0  0  0  0  0  0  0  0  0  0  0  0
   -9.4230   -1.6350  -10.9840 C   0  0  0  0  0  0  0  0  0  0  0  0
   -9.5130   -2.4830   -9.8160 N   0  0  0  0  0  0  0  0  0  0  0  0
   -8.3260   -2.5940   -8.9670 C   0  0  0  0  0  0  0  0  0  0  0  0
  -10.6570   -3.2680   -9.5460 C   0  0  0  0  0  0  0  0  0  0  0  0
  -10.9810   -4.2570  -10.2070 O   0  0  0  0  0  0  0  0  0  0  0  0
  -11.5100   -2.8070   -8.3380 C   0  0  0  0  0  0  0  0  0  0  0  0
  -12.4430   -1.7180   -8.6870 N   0  0  0  0  0  0  0  0  0  0  0  0
  -13.6010   -2.2250   -9.4470 C   0  0  0  0  0  0  0  0  0  0  0  0
  -14.8560   -1.3130   -9.3970 C   0  0  0  0  0  0  0  0  0  0  0  0
  -14.6000    0.1160   -9.1420 N   0  0  0  0  0  0  0  0  0  0  0  0
  -13.9260    0.7330  -10.2870 C   0  0  0  0  0  0  0  0  0  0  0  0
  -13.7830    0.2630   -7.9150 C   0  0  0  0  0  0  0  0  0  0  0  0
  -12.8950   -0.9500   -7.5190 C   0  0  0  0  0  0  0  0  0  0  0  0
  -10.5580   -1.0150  -11.5300 C   0  0  0  0  0  0  0  0  0  0  0  0
  -10.4880   -0.2110  -12.6840 C   0  0  0  0  0  0  0  0  0  0  0  0
  -10.8680    2.5020  -14.4530 C   0  0  0  0  0  0  0  0  0  0  0  0
  -12.0790    1.8150  -14.6310 C   0  0  0  0  0  0  0  0  0  0  0  0
  -13.2630    2.3190  -14.0880 C   0  0  0  0  0  0  0  0  0  0  0  0
  -13.2430    3.5120  -13.3650 C   0  0  0  0  0  0  0  0  0  0  0  0
  -12.0450    4.2030  -13.1850 C   0  0  0  0  0  0  0  0  0  0  0  0
  -10.8600    3.7020  -13.7270 C   0  0  0  0  0  0  0  0  0  0  0  0
  -10.8193    8.1522  -21.0360 H   0  0  0  0  0  0  0  0  0  0  0  0
   -9.5137    8.1743  -22.2696 H   0  0  0  0  0  0  0  0  0  0  0  0
  -10.7272    6.8498  -22.2696 H   0  0  0  0  0  0  0  0  0  0  0  0
  -11.2442    6.5698  -17.6169 H   0  0  0  0  0  0  0  0  0  0  0  0
  -11.2616    4.6147  -16.0547 H   0  0  0  0  0  0  0  0  0  0  0  0
   -7.4404    5.2668  -19.2673 H   0  0  0  0  0  0  0  0  0  0  0  0
   -6.5460    2.9680  -18.1620 H   0  0  0  0  0  0  0  0  0  0  0  0
   -8.4230    0.3350  -15.1490 H   0  0  0  0  0  0  0  0  0  0  0  0
   -7.1880   -0.4961  -13.3226 H   0  0  0  0  0  0  0  0  0  0  0  0
   -7.3035   -1.9106  -11.2962 H   0  0  0  0  0  0  0  0  0  0  0  0
   -8.6276   -2.5658   -7.9095 H   0  0  0  0  0  0  0  0  0  0  0  0
   -7.8128   -3.5441   -9.1767 H   0  0  0  0  0  0  0  0  0  0  0  0
   -7.6455   -1.7556   -9.1767 H   0  0  0  0  0  0  0  0  0  0  0  0
  -12.0914   -3.6648   -7.9690 H   0  0  0  0  0  0  0  0  0  0  0  0
  -10.8219   -2.4240   -7.5700 H   0  0  0  0  0  0  0  0  0  0  0  0
  -13.2991   -2.3359  -10.4989 H   0  0  0  0  0  0  0  0  0  0  0  0
  -13.8889   -3.1775   -8.9781 H   0  0  0  0  0  0  0  0  0  0  0  0
  -15.3725   -1.3960  -10.3647 H   0  0  0  0  0  0  0  0  0  0  0  0
  -15.4496   -1.6678   -8.5415 H   0  0  0  0  0  0  0  0  0  0  0  0
  -13.1594    1.4348   -9.9267 H   0  0  0  0  0  0  0  0  0  0  0  0
  -13.4498   -0.0487  -10.8970 H   0  0  0  0  0  0  0  0  0  0  0  0
  -14.6627    1.2762  -10.8970 H   0  0  0  0  0  0  0  0  0  0  0  0
  -13.1201    1.1291   -8.0576 H   0  0  0  0  0  0  0  0  0  0  0  0
  -14.5086    0.3704   -7.0953 H   0  0  0  0  0  0  0  0  0  0  0  0
  -12.0126   -0.5797   -6.9766 H   0  0  0  0  0  0  0  0  0  0  0  0
  -13.5019   -1.6195   -6.8918 H   0  0  0  0  0  0  0  0  0  0  0  0
  -11.5324   -1.1618  -11.0412 H   0  0  0  0  0  0  0  0  0  0  0  0
  -11.4071    0.2535  -13.0707 H   0  0  0  0  0  0  0  0  0  0  0  0
  -12.0956    0.8745  -15.2013 H   0  0  0  0  0  0  0  0  0  0  0  0
  -14.2093    1.7764  -14.2301 H   0  0  0  0  0  0  0  0  0  0  0  0
  -14.1748    3.9088  -12.9357 H   0  0  0  0  0  0  0  0  0  0  0  0
  -12.0338    5.1439  -12.6153 H   0  0  0  0  0  0  0  0  0  0  0  0
   -9.9170    4.2501  -13.5842 H   0  0  0  0  0  0  0  0  0  0  0  0
  1  2  1  0
  2  3  1  0
  3  4  2  0
  3  5  1  0
  5  6  1  0
  6  7  2  0
  7  8  1  0
  8  9  2  0
  9 10  1  0
  9 11  1  0
 11 12  1  0
 12 13  2  0
 12 14  1  0
 14 15  2  0
 15 16  1  0
 16 17  1  0
 17 18  1  0
 18 19  2  0
 19 20  1  0
 20 21  1  0
 21 22  1  0
 21 23  1  0
 23 24  2  0
 23 25  1  0
 25 26  1  0
 26 27  1  0
 27 28  1  0
 28 29  1  0
 29 30  1  0
 29 31  1  0
 31 32  1  0
 20 33  2  0
 33 34  1  0
 15 35  1  0
 35 36  2  0
 36 37  1  0
 37 38  2  0
 38 39  1  0
 39 40  2  0
 10  5  2  0
 34 17  2  0
 40 35  1  0
 14  8  1  0
 32 26  1  0
  1 41  1  0
  1 42  1  0
  1 43  1  0
  6 44  1  0
  7 45  1  0
 10 46  1  0
 11 47  1  0
 16 48  1  0
 18 49  1  0
 19 50  1  0
 22 51  1  0
 22 52  1  0
 22 53  1  0
 25 54  1  0
 25 55  1  0
 27 56  1  0
 27 57  1  0
 28 58  1  0
 28 59  1  0
 30 60  1  0
 30 61  1  0
 30 62  1  0
 31 63  1  0
 31 64  1  0
 32 65  1  0
 32 66  1  0
 33 67  1  0
 34 68  1  0
 36 69  1  0
 37 70  1  0
 38 71  1  0
 39 72  1  0
 40 73  1  0
M  END
>  <meeko>  (10) 
{"is_sidechain": false}

>  <vina_affinity_kcal_mol>  (10) 
-8.898

>  <pose_rank>  (10) 
10

$$$$
