
     RDKit          3D

 40 44  0  0  0  0  0  0  0  0999 V2000
   21.3310   64.4740   30.7450 C   0  0  0  0  0  0  0  0  0  0  0  0
   20.9760   63.1320   31.1930 C   0  0  0  0  0  0  0  0  0  0  0  0
   20.8030   65.3580   29.8830 C   0  0  0  0  0  0  0  0  0  0  0  0
   22.5800   64.8020   31.4790 C   0  0  0  0  0  0  0  0  0  0  0  0
   21.9510   62.7530   32.0920 C   0  0  0  0  0  0  0  0  0  0  0  0
   19.9510   62.2800   30.9270 C   0  0  0  0  0  0  0  0  0  0  0  0
   19.5670   65.0430   29.1840 C   0  0  0  0  0  0  0  0  0  0  0  0
   21.9460   61.5360   32.7280 C   0  0  0  0  0  0  0  0  0  0  0  0
   19.9250   61.0470   31.5410 C   0  0  0  0  0  0  0  0  0  0  0  0
   21.0950   67.6490   28.8550 C   0  0  0  0  0  0  0  0  0  0  0  0
   20.8970   60.6570   32.4460 C   0  0  0  0  0  0  0  0  0  0  0  0
   17.2270   64.6330   29.3230 C   0  0  0  0  0  0  0  0  0  0  0  0
   18.3210   64.6410   27.2250 C   0  0  0  0  0  0  0  0  0  0  0  0
   22.1550   68.4590   28.7880 C   0  0  0  0  0  0  0  0  0  0  0  0
   20.8490   59.3010   33.0550 C   0  0  0  0  0  0  0  0  0  0  0  0
   22.1340   69.6170   28.0560 C   0  0  0  0  0  0  0  0  0  0  0  0
   19.9460   69.1960   27.3650 C   0  0  0  0  0  0  0  0  0  0  0  0
   21.9080   58.9770   33.7750 O   0  0  0  0  0  0  0  0  0  0  0  0
   19.9910   58.5370   32.8490 O   0  0  0  0  0  0  0  0  0  0  0  0
   21.0450   70.0310   27.3330 C   0  0  0  0  0  0  0  0  0  0  0  0
   20.6560   72.4280   27.1380 C   0  0  0  0  0  0  0  0  0  0  0  0
   21.8660   71.3300   25.3760 C   0  0  0  0  0  0  0  0  0  0  0  0
   20.1990   72.3990   28.6000 C   0  0  0  0  0  0  0  0  0  0  0  0
   19.6040   74.0660   30.2000 C   0  0  0  0  0  0  0  0  0  0  0  0
   21.8290   73.3870   30.1250 C   0  0  0  0  0  0  0  0  0  0  0  0
   19.9350   75.4220   30.7970 C   0  0  0  0  0  0  0  0  0  0  0  0
   22.2460   74.7440   30.6790 C   0  0  0  0  0  0  0  0  0  0  0  0
   21.6020   76.7500   31.7510 C   0  0  0  0  0  0  0  0  0  0  0  0
   20.6590   73.4410   26.5050 O   0  0  0  0  0  0  0  0  0  0  0  0
   20.6530   73.5700   29.3270 N   0  0  0  0  0  0  0  0  0  0  0  0
   21.2120   75.3920   31.4700 N   0  0  0  0  0  0  0  0  0  0  0  0
   21.1430   71.2580   26.6250 N   0  0  0  0  0  0  0  0  0  0  0  0
   19.9940   68.0210   28.1170 C   0  0  0  0  0  0  0  0  0  0  0  0
   21.3550   66.5720   29.6290 N   0  0  0  0  0  0  0  0  0  0  0  0
   19.5140   64.9250   27.8200 C   0  0  0  0  0  0  0  0  0  0  0  0
   17.1770   64.4780   27.9650 C   0  0  0  0  0  0  0  0  0  0  0  0
   18.4160   64.9180   29.9220 C   0  0  0  0  0  0  0  0  0  0  0  0
   21.8240   57.6660   34.2350 C   0  0  0  0  0  0  0  0  0  0  0  0
   22.8730   63.7300   32.2230 N   0  0  0  0  0  0  0  0  0  0  0  0
   23.1970   65.7690   31.4040 O   0  0  0  0  0  0  0  0  0  0  0  0
  2  1  1  0
  3  1  2  3
  4  1  1  0
  5  2  2  0
  6  2  1  0
  7  3  1  0
  8  5  1  0
  9  6  2  0
 11  9  1  0
 11  8  2  0
 14 10  1  0
 15 11  1  0
 16 14  2  0
 18 15  1  0
 19 15  2  0
 20 17  2  0
 20 16  1  0
 23 21  1  0
 26 24  1  0
 27 25  1  0
 29 21  2  0
 30 24  1  0
 30 23  1  0
 30 25  1  0
 31 26  1  0
 31 28  1  0
 31 27  1  0
 32 20  1  0
 32 21  1  0
 32 22  1  0
 33 17  1  0
 33 10  2  0
 34  3  1  0
 34 10  1  0
 35 13  2  0
 35  7  1  0
 36 13  1  0
 36 12  2  0
 37 12  1  0
 37  7  2  0
 38 18  1  0
 39  5  1  0
 39  4  1  0
 40  4  2  0
M  END
$$$$
