
     RDKit          3D

 37 41  0  0  0  0  0  0  0  0999 V2000
  -38.0510  164.0060   -6.1260 C   0  0  0  0  0  0  0  0  0  0  0  0
  -38.2910  162.8770   -5.3520 C   0  0  0  0  0  0  0  0  0  0  0  0
  -38.5510  163.0180   -3.9990 C   0  0  0  0  0  0  0  0  0  0  0  0
  -38.5630  164.2820   -3.4470 C   0  0  0  0  0  0  0  0  0  0  0  0
  -38.3220  165.4100   -4.2140 N   0  0  0  0  0  0  0  0  0  0  0  0
  -38.0700  165.2750   -5.5680 C   0  0  0  0  0  0  0  0  0  0  0  0
  -38.7800  161.9060   -3.1920 C   0  0  0  0  0  0  0  0  0  0  0  0
  -38.5300  160.6410   -3.6830 C   0  0  0  0  0  0  0  0  0  0  0  0
  -38.7450  159.5440   -2.8810 C   0  0  0  0  0  0  0  0  0  0  0  0
  -39.1880  159.7320   -1.5930 N   0  0  0  0  0  0  0  0  0  0  0  0
  -39.4160  160.9590   -1.1370 C   0  0  0  0  0  0  0  0  0  0  0  0
  -39.2030  162.0260   -1.9340 N   0  0  0  0  0  0  0  0  0  0  0  0
  -39.8440  161.1670    0.1030 N   0  0  0  0  0  0  0  0  0  0  0  0
  -40.2200  160.1960    0.9480 C   0  0  0  0  0  0  0  0  0  0  0  0
  -41.5940  160.0610    1.1390 C   0  0  0  0  0  0  0  0  0  0  0  0
  -42.0580  159.1020    2.0080 C   0  0  0  0  0  0  0  0  0  0  0  0
  -41.1810  158.2980    2.7140 C   0  0  0  0  0  0  0  0  0  0  0  0
  -39.8130  158.4070    2.5610 C   0  0  0  0  0  0  0  0  0  0  0  0
  -39.3430  159.3860    1.6780 C   0  0  0  0  0  0  0  0  0  0  0  0
  -39.0600  157.5900    3.3300 N   0  0  0  0  0  0  0  0  0  0  0  0
  -37.7270  157.4740    3.2240 C   0  0  0  0  0  0  0  0  0  0  0  0
  -37.1090  156.6100    4.1500 C   0  0  0  0  0  0  0  0  0  0  0  0
  -35.7710  156.8160    4.4600 C   0  0  0  0  0  0  0  0  0  0  0  0
  -35.0870  156.0130    5.3710 C   0  0  0  0  0  0  0  0  0  0  0  0
  -35.7420  154.9820    6.0240 C   0  0  0  0  0  0  0  0  0  0  0  0
  -37.0890  154.7830    5.7410 C   0  0  0  0  0  0  0  0  0  0  0  0
  -37.7710  155.5850    4.8160 C   0  0  0  0  0  0  0  0  0  0  0  0
  -35.0440  154.1840    6.9520 C   0  0  0  0  0  0  0  0  0  0  0  0
  -35.1650  152.7450    6.6880 N   0  0  0  0  0  0  0  0  0  0  0  0
  -34.6740  152.3860    5.3590 C   0  0  0  0  0  0  0  0  0  0  0  0
  -34.9400  150.9420    5.0660 C   0  0  0  0  0  0  0  0  0  0  0  0
  -34.3020  150.0920    6.0740 N   0  0  0  0  0  0  0  0  0  0  0  0
  -34.5280  148.6880    5.7430 C   0  0  0  0  0  0  0  0  0  0  0  0
  -34.7780  150.4260    7.4220 C   0  0  0  0  0  0  0  0  0  0  0  0
  -34.5280  151.9060    7.7140 C   0  0  0  0  0  0  0  0  0  0  0  0
  -37.0450  158.0830    2.4170 O   0  0  0  0  0  0  0  0  0  0  0  0
  -42.5230  160.8280    0.4600 C   0  0  0  0  0  0  0  0  0  0  0  0
  2  1  1  0
  3  2  2  0
  4  3  1  0
  5  4  2  0
  6  5  1  0
  6  1  2  0
  7  3  1  0
  8  7  1  0
  9  8  2  0
 10  9  1  0
 11 10  2  0
 12 11  1  0
 12  7  2  0
 13 11  1  0
 14 13  1  0
 15 14  2  0
 16 15  1  0
 17 16  2  0
 18 17  1  0
 19 18  2  0
 19 14  1  0
 20 18  1  0
 21 20  1  0
 22 21  1  0
 23 22  1  0
 24 23  2  0
 25 24  1  0
 26 25  2  0
 27 22  2  0
 27 26  1  0
 28 25  1  0
 29 28  1  0
 30 29  1  0
 31 30  1  0
 32 31  1  0
 33 32  1  0
 34 32  1  0
 35 34  1  0
 35 29  1  0
 36 21  2  0
 37 15  1  0
M  END
$$$$
