
     RDKit          3D

 37 41  0  0  0  0  0  0  0  0999 V2000
   21.2598   -2.7669   18.3717 C   0  0  0  0  0  0  0  0  0  0  0  0
   22.4330   -2.0748   18.6476 C   0  0  0  0  0  0  0  0  0  0  0  0
   22.6832   -1.6402   19.9385 C   0  0  0  0  0  0  0  0  0  0  0  0
   21.7562   -1.9029   20.9256 C   0  0  0  0  0  0  0  0  0  0  0  0
   20.5844   -2.5902   20.6549 N   0  0  0  0  0  0  0  0  0  0  0  0
   20.3338   -3.0338   19.3682 C   0  0  0  0  0  0  0  0  0  0  0  0
   23.8416   -0.9303   20.2455 C   0  0  0  0  0  0  0  0  0  0  0  0
   24.6445   -0.4578   19.2277 C   0  0  0  0  0  0  0  0  0  0  0  0
   25.7822    0.2537   19.5318 C   0  0  0  0  0  0  0  0  0  0  0  0
   26.0874    0.4982   20.8499 N   0  0  0  0  0  0  0  0  0  0  0  0
   25.2972    0.0404   21.8150 C   0  0  0  0  0  0  0  0  0  0  0  0
   24.1858   -0.6573   21.5037 N   0  0  0  0  0  0  0  0  0  0  0  0
   25.5701    0.2632   23.0956 N   0  0  0  0  0  0  0  0  0  0  0  0
   26.7037    0.8227   23.5429 C   0  0  0  0  0  0  0  0  0  0  0  0
   27.6209   -0.0526   24.1219 C   0  0  0  0  0  0  0  0  0  0  0  0
   28.7985    0.4481   24.6247 C   0  0  0  0  0  0  0  0  0  0  0  0
   29.0659    1.8051   24.5915 C   0  0  0  0  0  0  0  0  0  0  0  0
   28.1793    2.7062   24.0360 C   0  0  0  0  0  0  0  0  0  0  0  0
   26.9799    2.1944   23.5276 C   0  0  0  0  0  0  0  0  0  0  0  0
   28.5375    4.0078   24.0935 N   0  0  0  0  0  0  0  0  0  0  0  0
   27.8602    5.0018   23.4978 C   0  0  0  0  0  0  0  0  0  0  0  0
   28.3580    6.3021   23.7153 C   0  0  0  0  0  0  0  0  0  0  0  0
   27.4841    7.3755   23.6012 C   0  0  0  0  0  0  0  0  0  0  0  0
   27.8929    8.6919   23.8082 C   0  0  0  0  0  0  0  0  0  0  0  0
   29.2021    8.9698   24.1646 C   0  0  0  0  0  0  0  0  0  0  0  0
   30.0797    7.9005   24.3074 C   0  0  0  0  0  0  0  0  0  0  0  0
   29.6684    6.5789   24.0875 C   0  0  0  0  0  0  0  0  0  0  0  0
   29.6016   10.3032   24.3831 C   0  0  0  0  0  0  0  0  0  0  0  0
   30.7915   10.6869   23.6139 N   0  0  0  0  0  0  0  0  0  0  0  0
   30.5909   10.5299   22.1747 C   0  0  0  0  0  0  0  0  0  0  0  0
   31.8623   10.7923   21.4287 C   0  0  0  0  0  0  0  0  0  0  0  0
   32.3506   12.1434   21.7144 N   0  0  0  0  0  0  0  0  0  0  0  0
   33.5609   12.3995   20.9389 C   0  0  0  0  0  0  0  0  0  0  0  0
   32.5660   12.3320   23.1542 C   0  0  0  0  0  0  0  0  0  0  0  0
   31.2744   12.0418   23.9195 C   0  0  0  0  0  0  0  0  0  0  0  0
   26.8523    4.8442   22.8296 O   0  0  0  0  0  0  0  0  0  0  0  0
   27.4172   -1.4191   24.1807 C   0  0  0  0  0  0  0  0  0  0  0  0
  2  1  1  0
  3  2  2  0
  4  3  1  0
  5  4  2  0
  6  5  1  0
  6  1  2  0
  7  3  1  0
  8  7  1  0
  9  8  2  0
 10  9  1  0
 11 10  2  0
 12 11  1  0
 12  7  2  0
 13 11  1  0
 14 13  1  0
 15 14  2  0
 16 15  1  0
 17 16  2  0
 18 17  1  0
 19 18  2  0
 19 14  1  0
 20 18  1  0
 21 20  1  0
 22 21  1  0
 23 22  1  0
 24 23  2  0
 25 24  1  0
 26 25  2  0
 27 22  2  0
 27 26  1  0
 28 25  1  0
 29 28  1  0
 30 29  1  0
 31 30  1  0
 32 31  1  0
 33 32  1  0
 34 32  1  0
 35 34  1  0
 35 29  1  0
 36 21  2  0
 37 15  1  0
M  END
$$$$
