
     RDKit          3D

 40 44  0  0  0  0  0  0  0  0999 V2000
  -11.3811    4.1632  -14.4500 C   0  0  0  0  0  0  0  0  0  0  0  0
  -10.6444    4.8513  -15.5043 C   0  0  0  0  0  0  0  0  0  0  0  0
  -11.0698    3.2539  -13.5122 C   0  0  0  0  0  0  0  0  0  0  0  0
  -12.7726    4.6700  -14.5654 C   0  0  0  0  0  0  0  0  0  0  0  0
  -11.5557    5.6623  -16.1480 C   0  0  0  0  0  0  0  0  0  0  0  0
   -9.3486    4.8531  -15.9143 C   0  0  0  0  0  0  0  0  0  0  0  0
   -9.7012    2.7778  -13.3867 C   0  0  0  0  0  0  0  0  0  0  0  0
  -11.2180    6.4700  -17.2059 C   0  0  0  0  0  0  0  0  0  0  0  0
   -8.9819    5.6444  -16.9808 C   0  0  0  0  0  0  0  0  0  0  0  0
  -11.9938    1.8624  -11.6147 C   0  0  0  0  0  0  0  0  0  0  0  0
   -9.8875    6.4633  -17.6328 C   0  0  0  0  0  0  0  0  0  0  0  0
   -7.4389    3.2812  -12.8464 C   0  0  0  0  0  0  0  0  0  0  0  0
   -8.0671    1.0815  -13.4507 C   0  0  0  0  0  0  0  0  0  0  0  0
  -13.2468    1.5361  -11.2868 C   0  0  0  0  0  0  0  0  0  0  0  0
   -9.4547    7.2712  -18.8041 C   0  0  0  0  0  0  0  0  0  0  0  0
  -13.5221    0.6466  -10.2816 C   0  0  0  0  0  0  0  0  0  0  0  0
  -11.2468    0.3186   -9.8849 C   0  0  0  0  0  0  0  0  0  0  0  0
  -10.4310    7.8875  -19.4458 O   0  0  0  0  0  0  0  0  0  0  0  0
   -8.3543    7.2966  -19.1924 O   0  0  0  0  0  0  0  0  0  0  0  0
  -12.5509    0.0177   -9.5459 C   0  0  0  0  0  0  0  0  0  0  0  0
  -13.0404   -0.4848   -7.2129 C   0  0  0  0  0  0  0  0  0  0  0  0
  -13.4285   -2.2033   -8.8471 C   0  0  0  0  0  0  0  0  0  0  0  0
  -12.8729    1.0118   -6.9313 C   0  0  0  0  0  0  0  0  0  0  0  0
  -13.2262    2.4054   -5.0271 C   0  0  0  0  0  0  0  0  0  0  0  0
  -14.9953    2.1442   -6.5168 C   0  0  0  0  0  0  0  0  0  0  0  0
  -14.1322    2.7423   -3.8565 C   0  0  0  0  0  0  0  0  0  0  0  0
  -15.9725    2.4277   -5.3824 C   0  0  0  0  0  0  0  0  0  0  0  0
  -16.3114    3.2590   -3.1957 C   0  0  0  0  0  0  0  0  0  0  0  0
  -13.3020   -1.2585   -6.3413 O   0  0  0  0  0  0  0  0  0  0  0  0
  -13.8465    1.4881   -5.9663 N   0  0  0  0  0  0  0  0  0  0  0  0
  -15.4071    3.2397   -4.3168 N   0  0  0  0  0  0  0  0  0  0  0  0
  -12.9644   -0.8742   -8.5213 N   0  0  0  0  0  0  0  0  0  0  0  0
  -10.9935    1.2267  -10.9142 C   0  0  0  0  0  0  0  0  0  0  0  0
  -11.9739    2.7496  -12.6340 N   0  0  0  0  0  0  0  0  0  0  0  0
   -9.3665    1.4660  -13.5974 C   0  0  0  0  0  0  0  0  0  0  0  0
   -7.0945    1.9805  -13.0917 C   0  0  0  0  0  0  0  0  0  0  0  0
   -8.7358    3.6700  -12.9902 C   0  0  0  0  0  0  0  0  0  0  0  0
   -9.9552    8.5472  -20.5753 C   0  0  0  0  0  0  0  0  0  0  0  0
  -12.7794    5.5227  -15.5956 N   0  0  0  0  0  0  0  0  0  0  0  0
  -13.6773    4.3699  -13.9229 O   0  0  0  0  0  0  0  0  0  0  0  0
  2  1  1  0
  3  1  2  3
  4  1  1  0
  5  2  2  0
  6  2  1  0
  7  3  1  0
  8  5  1  0
  9  6  2  0
 11  9  1  0
 11  8  2  0
 14 10  1  0
 15 11  1  0
 16 14  2  0
 18 15  1  0
 19 15  2  0
 20 17  2  0
 20 16  1  0
 23 21  1  0
 26 24  1  0
 27 25  1  0
 29 21  2  0
 30 24  1  0
 30 23  1  0
 30 25  1  0
 31 26  1  0
 31 28  1  0
 31 27  1  0
 32 20  1  0
 32 21  1  0
 32 22  1  0
 33 17  1  0
 33 10  2  0
 34  3  1  0
 34 10  1  0
 35 13  2  0
 35  7  1  0
 36 13  1  0
 36 12  2  0
 37 12  1  0
 37  7  2  0
 38 18  1  0
 39  5  1  0
 39  4  1  0
 40  4  2  0
M  END
$$$$
