
     RDKit          3D

 55 59  0  0  0  0  0  0  0  0999 V2000
  -38.8990  166.1850   -9.6550 O   0  0  0  0  0  0  0  0  0  0  0  0
  -37.5930  165.8140   -9.0150 S   0  0  0  0  0  4  0  0  0  0  0  0
  -36.3100  165.9660  -10.3230 C   0  0  0  0  0  0  0  0  0  0  0  0
  -36.4450  164.7340  -11.2100 C   0  0  0  0  0  0  0  0  0  0  0  0
  -36.8660  163.6250  -10.2880 C   0  0  0  0  0  0  0  0  0  0  0  0
  -36.6730  162.3390  -10.6170 N   0  0  0  0  0  0  0  0  0  0  0  0
  -37.1550  161.4210   -9.7660 C   0  0  0  0  0  0  0  0  0  0  0  0
  -36.9760  160.0820  -10.0560 N   0  0  0  0  0  0  0  0  0  0  0  0
  -37.0820  159.6510  -11.4460 C   0  0  0  0  0  0  0  0  0  0  0  0
  -35.9480  158.6940  -11.8000 C   0  0  0  0  0  0  0  0  0  0  0  0
  -35.9220  157.4720  -10.8710 C   0  0  0  0  0  0  0  0  0  0  0  0
  -34.5440  156.8490  -10.8910 C   0  0  0  0  0  0  0  0  0  0  0  0
  -34.4630  155.5140  -10.7140 N   0  0  0  0  0  0  0  0  0  0  0  0
  -33.2260  154.9720  -10.7640 C   0  0  0  0  0  0  0  0  0  0  0  0
  -32.0820  155.7010  -10.9860 C   0  0  0  0  0  0  0  0  0  0  0  0
  -30.5340  154.9800  -11.0410 Cl  0  0  0  0  0  0  0  0  0  0  0  0
  -32.2700  157.0520  -11.1590 C   0  0  0  0  0  0  0  0  0  0  0  0
  -33.4820  157.6510  -11.1190 N   0  0  0  0  0  0  0  0  0  0  0  0
  -36.3840  157.8000   -9.4420 C   0  0  0  0  0  0  0  0  0  0  0  0
  -36.1990  159.2810   -9.1150 C   0  0  0  0  0  0  0  0  0  0  0  0
  -37.7730  161.7590   -8.6140 N   0  0  0  0  0  0  0  0  0  0  0  0
  -37.9390  163.0610   -8.2970 C   0  0  0  0  0  0  0  0  0  0  0  0
  -38.5660  163.2560   -7.0560 N   0  0  0  0  0  0  0  0  0  0  0  0
  -37.9690  163.0370   -5.7450 C   0  0  0  0  0  0  0  0  0  0  0  0
  -36.9210  164.1030   -5.3930 C   0  0  0  0  0  0  0  0  0  0  0  0
  -37.5120  165.2030   -4.7070 O   0  0  0  0  0  0  0  0  0  0  0  0
  -39.0280  162.6230   -4.6810 C   0  0  0  0  0  0  0  0  0  0  0  0
  -38.1480  161.4170   -4.3100 C   0  0  0  0  0  0  0  0  0  0  0  0
  -37.4560  161.5580   -5.6750 C   0  0  0  0  0  0  0  0  0  0  0  0
  -37.5010  164.0460   -9.1410 C   0  0  0  0  0  0  0  0  0  0  0  0
  -36.4763  166.8790  -10.9136 H   0  0  0  0  0  0  0  0  0  0  0  0
  -35.3029  166.0316   -9.8854 H   0  0  0  0  0  0  0  0  0  0  0  0
  -37.2067  164.8997  -11.9861 H   0  0  0  0  0  0  0  0  0  0  0  0
  -35.5051  164.4992  -11.7311 H   0  0  0  0  0  0  0  0  0  0  0  0
  -38.0451  159.1405  -11.5936 H   0  0  0  0  0  0  0  0  0  0  0  0
  -37.0159  160.5351  -12.0972 H   0  0  0  0  0  0  0  0  0  0  0  0
  -36.0824  158.3506  -12.8363 H   0  0  0  0  0  0  0  0  0  0  0  0
  -34.9964  159.2332  -11.6823 H   0  0  0  0  0  0  0  0  0  0  0  0
  -36.6493  156.7401  -11.2523 H   0  0  0  0  0  0  0  0  0  0  0  0
  -33.1292  153.8859  -10.6188 H   0  0  0  0  0  0  0  0  0  0  0  0
  -31.3856  157.6806  -11.3400 H   0  0  0  0  0  0  0  0  0  0  0  0
  -37.4492  157.5435   -9.3439 H   0  0  0  0  0  0  0  0  0  0  0  0
  -35.7716  157.2145   -8.7404 H   0  0  0  0  0  0  0  0  0  0  0  0
  -36.5468  159.4775   -8.0901 H   0  0  0  0  0  0  0  0  0  0  0  0
  -35.1346  159.5466   -9.1952 H   0  0  0  0  0  0  0  0  0  0  0  0
  -39.4160  162.6960   -7.1480 H   0  0  0  0  0  0  0  0  0  0  0  0
  -36.1520  163.6507   -4.7495 H   0  0  0  0  0  0  0  0  0  0  0  0
  -36.4765  164.4750   -6.3279 H   0  0  0  0  0  0  0  0  0  0  0  0
  -36.7900  165.6930   -4.2780 H   0  0  0  0  0  0  0  0  0  0  0  0
  -39.1623  163.3523   -3.8685 H   0  0  0  0  0  0  0  0  0  0  0  0
  -40.0839  162.4876   -4.9581 H   0  0  0  0  0  0  0  0  0  0  0  0
  -37.4883  161.5833   -3.4456 H   0  0  0  0  0  0  0  0  0  0  0  0
  -38.5922  160.4627   -3.9907 H   0  0  0  0  0  0  0  0  0  0  0  0
  -36.3610  161.4586   -5.6411 H   0  0  0  0  0  0  0  0  0  0  0  0
  -37.6590  160.8478   -6.4901 H   0  0  0  0  0  0  0  0  0  0  0  0
  1  2  2  0
  2  3  1  6
  3  4  1  0
  4  5  1  0
  5  6  2  0
  6  7  1  0
  7  8  1  0
  8  9  1  0
  9 10  1  0
 10 11  1  0
 11 12  1  0
 12 13  2  0
 13 14  1  0
 14 15  2  0
 15 16  1  0
 15 17  1  0
 17 18  2  0
 11 19  1  0
 19 20  1  0
  7 21  2  0
 21 22  1  0
 22 23  1  0
 23 24  1  0
 24 25  1  0
 25 26  1  0
 24 27  1  0
 27 28  1  0
 28 29  1  0
 22 30  2  0
 30  2  1  0
 30  5  1  0
 20  8  1  0
 29 24  1  0
 18 12  1  0
  3 31  1  0
  3 32  1  0
  4 33  1  0
  4 34  1  0
  9 35  1  0
  9 36  1  0
 10 37  1  0
 10 38  1  0
 11 39  1  0
 14 40  1  0
 17 41  1  0
 19 42  1  0
 19 43  1  0
 20 44  1  0
 20 45  1  0
 23 46  1  0
 25 47  1  0
 25 48  1  0
 26 49  1  0
 27 50  1  0
 27 51  1  0
 28 52  1  0
 28 53  1  0
 29 54  1  0
 29 55  1  0
M  END
>  <meeko>  (1) 
{"is_sidechain": false}

>  <vina_affinity_kcal_mol>  (1) 
-8.421

>  <pose_rank>  (1) 
1

$$$$

     RDKit          3D

 55 59  0  0  0  0  0  0  0  0999 V2000
  -33.7290  144.8840   -1.7600 O   0  0  0  0  0  0  0  0  0  0  0  0
  -32.7920  145.8940   -1.1640 S   0  0  0  0  0  4  0  0  0  0  0  0
  -31.7630  144.9910    0.0630 C   0  0  0  0  0  0  0  0  0  0  0  0
  -32.6350  144.7870    1.2960 C   0  0  0  0  0  0  0  0  0  0  0  0
  -33.5130  146.0060    1.3680 C   0  0  0  0  0  0  0  0  0  0  0  0
  -34.0910  146.3760    2.5210 N   0  0  0  0  0  0  0  0  0  0  0  0
  -34.9190  147.4300    2.4660 C   0  0  0  0  0  0  0  0  0  0  0  0
  -35.5360  147.8560    3.6270 N   0  0  0  0  0  0  0  0  0  0  0  0
  -34.7890  147.7830    4.8780 C   0  0  0  0  0  0  0  0  0  0  0  0
  -34.9610  149.0680    5.6830 C   0  0  0  0  0  0  0  0  0  0  0  0
  -36.4390  149.3680    5.9690 C   0  0  0  0  0  0  0  0  0  0  0  0
  -36.6080  150.8390    6.2760 C   0  0  0  0  0  0  0  0  0  0  0  0
  -35.6580  151.4290    7.0300 N   0  0  0  0  0  0  0  0  0  0  0  0
  -35.8110  152.7500    7.2700 C   0  0  0  0  0  0  0  0  0  0  0  0
  -36.8590  153.4960    6.7870 C   0  0  0  0  0  0  0  0  0  0  0  0
  -37.0190  155.1660    7.1120 Cl  0  0  0  0  0  0  0  0  0  0  0  0
  -37.7710  152.8060    6.0260 C   0  0  0  0  0  0  0  0  0  0  0  0
  -37.6720  151.4840    5.7530 N   0  0  0  0  0  0  0  0  0  0  0  0
  -37.3710  148.9050    4.8370 C   0  0  0  0  0  0  0  0  0  0  0  0
  -36.6330  148.8090    3.5030 C   0  0  0  0  0  0  0  0  0  0  0  0
  -35.1410  148.1150    1.3230 N   0  0  0  0  0  0  0  0  0  0  0  0
  -34.5310  147.7340    0.1810 C   0  0  0  0  0  0  0  0  0  0  0  0
  -34.8310  148.5610   -0.9130 N   0  0  0  0  0  0  0  0  0  0  0  0
  -35.9790  148.4350   -1.8000 C   0  0  0  0  0  0  0  0  0  0  0  0
  -36.1420  149.6530   -2.7220 C   0  0  0  0  0  0  0  0  0  0  0  0
  -35.5740  150.8230   -2.1390 O   0  0  0  0  0  0  0  0  0  0  0  0
  -36.1060  147.0020   -2.3940 C   0  0  0  0  0  0  0  0  0  0  0  0
  -37.5720  146.9670   -1.9290 C   0  0  0  0  0  0  0  0  0  0  0  0
  -37.2380  148.0890   -0.9340 C   0  0  0  0  0  0  0  0  0  0  0  0
  -33.7030  146.6440    0.1640 C   0  0  0  0  0  0  0  0  0  0  0  0
  -31.4504  144.0189   -0.3459 H   0  0  0  0  0  0  0  0  0  0  0  0
  -30.8524  145.5565    0.3101 H   0  0  0  0  0  0  0  0  0  0  0  0
  -33.2456  143.8782    1.1899 H   0  0  0  0  0  0  0  0  0  0  0  0
  -32.0326  144.6614    2.2078 H   0  0  0  0  0  0  0  0  0  0  0  0
  -35.1587  146.9332    5.4706 H   0  0  0  0  0  0  0  0  0  0  0  0
  -33.7219  147.6503    4.6462 H   0  0  0  0  0  0  0  0  0  0  0  0
  -34.4274  148.9632    6.6392 H   0  0  0  0  0  0  0  0  0  0  0  0
  -34.5516  149.8998    5.0909 H   0  0  0  0  0  0  0  0  0  0  0  0
  -36.7394  148.7839    6.8514 H   0  0  0  0  0  0  0  0  0  0  0  0
  -35.0540  153.2566    7.8867 H   0  0  0  0  0  0  0  0  0  0  0  0
  -38.6292  153.3584    5.6158 H   0  0  0  0  0  0  0  0  0  0  0  0
  -37.7774  147.9151    5.0919 H   0  0  0  0  0  0  0  0  0  0  0  0
  -38.1771  149.6459    4.7310 H   0  0  0  0  0  0  0  0  0  0  0  0
  -37.3287  148.4690    2.7217 H   0  0  0  0  0  0  0  0  0  0  0  0
  -36.2339  149.7972    3.2305 H   0  0  0  0  0  0  0  0  0  0  0  0
  -33.9660  148.5280   -1.4580 H   0  0  0  0  0  0  0  0  0  0  0  0
  -35.6385  149.4485   -3.6784 H   0  0  0  0  0  0  0  0  0  0  0  0
  -37.2165  149.8292   -2.8781 H   0  0  0  0  0  0  0  0  0  0  0  0
  -36.2680  151.2360   -1.5970 H   0  0  0  0  0  0  0  0  0  0  0  0
  -35.9757  146.9509   -3.4851 H   0  0  0  0  0  0  0  0  0  0  0  0
  -35.4027  146.2066   -2.1063 H   0  0  0  0  0  0  0  0  0  0  0  0
  -38.3019  147.2470   -2.7028 H   0  0  0  0  0  0  0  0  0  0  0  0
  -38.0431  146.0304   -1.5961 H   0  0  0  0  0  0  0  0  0  0  0  0
  -37.9895  148.8908   -0.8848 H   0  0  0  0  0  0  0  0  0  0  0  0
  -37.1476  147.8845    0.1430 H   0  0  0  0  0  0  0  0  0  0  0  0
  1  2  2  0
  2  3  1  1
  3  4  1  0
  4  5  1  0
  5  6  2  0
  6  7  1  0
  7  8  1  0
  8  9  1  0
  9 10  1  0
 10 11  1  0
 11 12  1  0
 12 13  2  0
 13 14  1  0
 14 15  2  0
 15 16  1  0
 15 17  1  0
 17 18  2  0
 11 19  1  0
 19 20  1  0
  7 21  2  0
 21 22  1  0
 22 23  1  0
 23 24  1  0
 24 25  1  0
 25 26  1  0
 24 27  1  0
 27 28  1  0
 28 29  1  0
 22 30  2  0
 30  2  1  0
 30  5  1  0
 20  8  1  0
 29 24  1  0
 18 12  1  0
  3 31  1  0
  3 32  1  0
  4 33  1  0
  4 34  1  0
  9 35  1  0
  9 36  1  0
 10 37  1  0
 10 38  1  0
 11 39  1  0
 14 40  1  0
 17 41  1  0
 19 42  1  0
 19 43  1  0
 20 44  1  0
 20 45  1  0
 23 46  1  0
 25 47  1  0
 25 48  1  0
 26 49  1  0
 27 50  1  0
 27 51  1  0
 28 52  1  0
 28 53  1  0
 29 54  1  0
 29 55  1  0
M  END
>  <meeko>  (2) 
{"is_sidechain": false}

>  <vina_affinity_kcal_mol>  (2) 
-8.075

>  <pose_rank>  (2) 
2

$$$$

     RDKit          3D

 55 59  0  0  0  0  0  0  0  0999 V2000
  -39.4620  147.4730    0.4070 O   0  0  0  0  0  0  0  0  0  0  0  0
  -39.2780  146.7030    1.6820 S   0  0  0  0  0  4  0  0  0  0  0  0
  -40.8490  146.8700    2.6220 C   0  0  0  0  0  0  0  0  0  0  0  0
  -40.8420  148.2640    3.2380 C   0  0  0  0  0  0  0  0  0  0  0  0
  -39.4010  148.5500    3.5570 C   0  0  0  0  0  0  0  0  0  0  0  0
  -39.0630  149.4720    4.4720 N   0  0  0  0  0  0  0  0  0  0  0  0
  -37.7530  149.7110    4.6290 C   0  0  0  0  0  0  0  0  0  0  0  0
  -37.3520  150.6460    5.5630 N   0  0  0  0  0  0  0  0  0  0  0  0
  -36.2180  150.3270    6.4240 C   0  0  0  0  0  0  0  0  0  0  0  0
  -35.2670  151.5160    6.5250 C   0  0  0  0  0  0  0  0  0  0  0  0
  -35.9810  152.7750    7.0380 C   0  0  0  0  0  0  0  0  0  0  0  0
  -35.1950  154.0030    6.6350 C   0  0  0  0  0  0  0  0  0  0  0  0
  -34.5520  153.9670    5.4500 N   0  0  0  0  0  0  0  0  0  0  0  0
  -33.8780  155.0840    5.0940 C   0  0  0  0  0  0  0  0  0  0  0  0
  -33.8290  156.2220    5.8630 C   0  0  0  0  0  0  0  0  0  0  0  0
  -32.9660  157.6150    5.3790 Cl  0  0  0  0  0  0  0  0  0  0  0  0
  -34.5200  156.1610    7.0490 C   0  0  0  0  0  0  0  0  0  0  0  0
  -35.2100  155.0720    7.4590 N   0  0  0  0  0  0  0  0  0  0  0  0
  -37.4470  152.8550    6.5850 C   0  0  0  0  0  0  0  0  0  0  0  0
  -37.6900  152.0440    5.3140 C   0  0  0  0  0  0  0  0  0  0  0  0
  -36.8080  149.0400    3.9340 N   0  0  0  0  0  0  0  0  0  0  0  0
  -37.1740  148.1040    3.0330 C   0  0  0  0  0  0  0  0  0  0  0  0
  -36.0840  147.4690    2.4170 N   0  0  0  0  0  0  0  0  0  0  0  0
  -35.3140  147.9780    1.2910 C   0  0  0  0  0  0  0  0  0  0  0  0
  -33.9480  148.5340    1.7200 C   0  0  0  0  0  0  0  0  0  0  0  0
  -34.0910  149.7420    2.4630 O   0  0  0  0  0  0  0  0  0  0  0  0
  -35.4040  147.0440    0.0490 C   0  0  0  0  0  0  0  0  0  0  0  0
  -35.8010  148.2600   -0.8050 C   0  0  0  0  0  0  0  0  0  0  0  0
  -36.2120  148.9800    0.4880 C   0  0  0  0  0  0  0  0  0  0  0  0
  -38.4970  147.8390    2.8010 C   0  0  0  0  0  0  0  0  0  0  0  0
  -41.7095  146.7581    1.9459 H   0  0  0  0  0  0  0  0  0  0  0  0
  -40.9316  146.0942    3.3974 H   0  0  0  0  0  0  0  0  0  0  0  0
  -41.2323  149.0031    2.5229 H   0  0  0  0  0  0  0  0  0  0  0  0
  -41.4789  148.3198    4.1331 H   0  0  0  0  0  0  0  0  0  0  0  0
  -36.5873  150.0735    7.4287 H   0  0  0  0  0  0  0  0  0  0  0  0
  -35.6740  149.4744    5.9914 H   0  0  0  0  0  0  0  0  0  0  0  0
  -34.4514  151.2618    7.2180 H   0  0  0  0  0  0  0  0  0  0  0  0
  -34.8782  151.7295    5.5184 H   0  0  0  0  0  0  0  0  0  0  0  0
  -36.0183  152.7210    8.1360 H   0  0  0  0  0  0  0  0  0  0  0  0
  -33.3388  155.0816    4.1352 H   0  0  0  0  0  0  0  0  0  0  0  0
  -34.5117  157.0467    7.7013 H   0  0  0  0  0  0  0  0  0  0  0  0
  -38.0899  152.4626    7.3867 H   0  0  0  0  0  0  0  0  0  0  0  0
  -37.6829  153.9078    6.3706 H   0  0  0  0  0  0  0  0  0  0  0  0
  -38.7488  152.1206    5.0259 H   0  0  0  0  0  0  0  0  0  0  0  0
  -37.0620  152.4361    4.5004 H   0  0  0  0  0  0  0  0  0  0  0  0
  -36.4650  146.5480    2.1880 H   0  0  0  0  0  0  0  0  0  0  0  0
  -33.4374  147.7869    2.3454 H   0  0  0  0  0  0  0  0  0  0  0  0
  -33.3613  148.7502    0.8150 H   0  0  0  0  0  0  0  0  0  0  0  0
  -34.3300  149.4910    3.3720 H   0  0  0  0  0  0  0  0  0  0  0  0
  -34.4489  146.5807   -0.2393 H   0  0  0  0  0  0  0  0  0  0  0  0
  -36.0280  146.1383    0.0671 H   0  0  0  0  0  0  0  0  0  0  0  0
  -34.9650  148.7313   -1.3425 H   0  0  0  0  0  0  0  0  0  0  0  0
  -36.4988  148.1609   -1.6496 H   0  0  0  0  0  0  0  0  0  0  0  0
  -35.8861  150.0290    0.5467 H   0  0  0  0  0  0  0  0  0  0  0  0
  -37.2717  149.1241    0.7452 H   0  0  0  0  0  0  0  0  0  0  0  0
  1  2  2  0
  2  3  1  1
  3  4  1  0
  4  5  1  0
  5  6  2  0
  6  7  1  0
  7  8  1  0
  8  9  1  0
  9 10  1  0
 10 11  1  0
 11 12  1  0
 12 13  2  0
 13 14  1  0
 14 15  2  0
 15 16  1  0
 15 17  1  0
 17 18  2  0
 11 19  1  0
 19 20  1  0
  7 21  2  0
 21 22  1  0
 22 23  1  0
 23 24  1  0
 24 25  1  0
 25 26  1  0
 24 27  1  0
 27 28  1  0
 28 29  1  0
 22 30  2  0
 30  2  1  0
 30  5  1  0
 20  8  1  0
 29 24  1  0
 18 12  1  0
  3 31  1  0
  3 32  1  0
  4 33  1  0
  4 34  1  0
  9 35  1  0
  9 36  1  0
 10 37  1  0
 10 38  1  0
 11 39  1  0
 14 40  1  0
 17 41  1  0
 19 42  1  0
 19 43  1  0
 20 44  1  0
 20 45  1  0
 23 46  1  0
 25 47  1  0
 25 48  1  0
 26 49  1  0
 27 50  1  0
 27 51  1  0
 28 52  1  0
 28 53  1  0
 29 54  1  0
 29 55  1  0
M  END
>  <meeko>  (3) 
{"is_sidechain": false}

>  <vina_affinity_kcal_mol>  (3) 
-8.055

>  <pose_rank>  (3) 
3

$$$$

     RDKit          3D

 55 59  0  0  0  0  0  0  0  0999 V2000
  -34.8170  155.9850    7.3040 O   0  0  0  0  0  0  0  0  0  0  0  0
  -34.3090  155.6500    5.9320 S   0  0  0  0  0  4  0  0  0  0  0  0
  -33.3440  157.1070    5.3630 C   0  0  0  0  0  0  0  0  0  0  0  0
  -34.3580  158.1630    4.9400 C   0  0  0  0  0  0  0  0  0  0  0  0
  -35.5170  157.3940    4.3690 C   0  0  0  0  0  0  0  0  0  0  0  0
  -36.3860  157.9740    3.5280 N   0  0  0  0  0  0  0  0  0  0  0  0
  -37.4310  157.2300    3.1360 C   0  0  0  0  0  0  0  0  0  0  0  0
  -38.3520  157.7780    2.2640 N   0  0  0  0  0  0  0  0  0  0  0  0
  -39.4600  158.5500    2.8180 C   0  0  0  0  0  0  0  0  0  0  0  0
  -39.6670  159.8380    2.0260 C   0  0  0  0  0  0  0  0  0  0  0  0
  -39.9130  159.5580    0.5370 C   0  0  0  0  0  0  0  0  0  0  0  0
  -39.5910  160.7950   -0.2710 C   0  0  0  0  0  0  0  0  0  0  0  0
  -38.9740  161.8100    0.3660 N   0  0  0  0  0  0  0  0  0  0  0  0
  -38.6690  162.8960   -0.3790 C   0  0  0  0  0  0  0  0  0  0  0  0
  -38.9490  163.0030   -1.7200 C   0  0  0  0  0  0  0  0  0  0  0  0
  -38.5480  164.3930   -2.6300 Cl  0  0  0  0  0  0  0  0  0  0  0  0
  -39.5740  161.9140   -2.2790 C   0  0  0  0  0  0  0  0  0  0  0  0
  -39.9050  160.8010   -1.5840 N   0  0  0  0  0  0  0  0  0  0  0  0
  -39.1500  158.3240    0.0290 C   0  0  0  0  0  0  0  0  0  0  0  0
  -37.9260  158.0230    0.8900 C   0  0  0  0  0  0  0  0  0  0  0  0
  -37.5930  155.9490    3.5320 N   0  0  0  0  0  0  0  0  0  0  0  0
  -36.6940  155.3830    4.3640 C   0  0  0  0  0  0  0  0  0  0  0  0
  -36.9760  154.0390    4.6580 N   0  0  0  0  0  0  0  0  0  0  0  0
  -37.4830  153.5210    5.9210 C   0  0  0  0  0  0  0  0  0  0  0  0
  -38.2520  154.5830    6.7210 C   0  0  0  0  0  0  0  0  0  0  0  0
  -37.4090  155.2220    7.6770 O   0  0  0  0  0  0  0  0  0  0  0  0
  -38.0830  152.0930    5.7700 C   0  0  0  0  0  0  0  0  0  0  0  0
  -37.2020  151.6270    6.9420 C   0  0  0  0  0  0  0  0  0  0  0  0
  -36.2990  152.8430    6.6900 C   0  0  0  0  0  0  0  0  0  0  0  0
  -35.6250  156.1010    4.8280 C   0  0  0  0  0  0  0  0  0  0  0  0
  -32.7165  157.4897    6.1814 H   0  0  0  0  0  0  0  0  0  0  0  0
  -32.6778  156.8404    4.5292 H   0  0  0  0  0  0  0  0  0  0  0  0
  -34.6801  158.7574    5.8078 H   0  0  0  0  0  0  0  0  0  0  0  0
  -33.9348  158.8688    4.2102 H   0  0  0  0  0  0  0  0  0  0  0  0
  -40.3787  157.9467    2.7734 H   0  0  0  0  0  0  0  0  0  0  0  0
  -39.2248  158.8092    3.8608 H   0  0  0  0  0  0  0  0  0  0  0  0
  -40.5365  160.3724    2.4362 H   0  0  0  0  0  0  0  0  0  0  0  0
  -38.7532  160.4440    2.1136 H   0  0  0  0  0  0  0  0  0  0  0  0
  -40.9782  159.3158    0.4080 H   0  0  0  0  0  0  0  0  0  0  0  0
  -38.1687  163.7414    0.1160 H   0  0  0  0  0  0  0  0  0  0  0  0
  -39.8188  161.9491   -3.3509 H   0  0  0  0  0  0  0  0  0  0  0  0
  -39.8235  157.4546    0.0506 H   0  0  0  0  0  0  0  0  0  0  0  0
  -38.8062  158.5311   -0.9952 H   0  0  0  0  0  0  0  0  0  0  0  0
  -37.4124  157.1319    0.5000 H   0  0  0  0  0  0  0  0  0  0  0  0
  -37.2375  158.8805    0.8648 H   0  0  0  0  0  0  0  0  0  0  0  0
  -36.0980  153.5720    4.4190 H   0  0  0  0  0  0  0  0  0  0  0  0
  -38.6446  155.3403    6.0264 H   0  0  0  0  0  0  0  0  0  0  0  0
  -39.0727  154.0859    7.2589 H   0  0  0  0  0  0  0  0  0  0  0  0
  -36.5400  154.7870    7.6260 H   0  0  0  0  0  0  0  0  0  0  0  0
  -39.1640  152.0332    5.9644 H   0  0  0  0  0  0  0  0  0  0  0  0
  -38.0600  151.5697    4.8027 H   0  0  0  0  0  0  0  0  0  0  0  0
  -37.7063  151.6291    7.9196 H   0  0  0  0  0  0  0  0  0  0  0  0
  -36.7903  150.6075    6.9766 H   0  0  0  0  0  0  0  0  0  0  0  0
  -35.9872  153.3734    7.6018 H   0  0  0  0  0  0  0  0  0  0  0  0
  -35.3102  152.7282    6.2220 H   0  0  0  0  0  0  0  0  0  0  0  0
  1  2  2  0
  2  3  1  6
  3  4  1  0
  4  5  1  0
  5  6  2  0
  6  7  1  0
  7  8  1  0
  8  9  1  0
  9 10  1  0
 10 11  1  0
 11 12  1  0
 12 13  2  0
 13 14  1  0
 14 15  2  0
 15 16  1  0
 15 17  1  0
 17 18  2  0
 11 19  1  0
 19 20  1  0
  7 21  2  0
 21 22  1  0
 22 23  1  0
 23 24  1  0
 24 25  1  0
 25 26  1  0
 24 27  1  0
 27 28  1  0
 28 29  1  0
 22 30  2  0
 30  2  1  0
 30  5  1  0
 20  8  1  0
 29 24  1  0
 18 12  1  0
  3 31  1  0
  3 32  1  0
  4 33  1  0
  4 34  1  0
  9 35  1  0
  9 36  1  0
 10 37  1  0
 10 38  1  0
 11 39  1  0
 14 40  1  0
 17 41  1  0
 19 42  1  0
 19 43  1  0
 20 44  1  0
 20 45  1  0
 23 46  1  0
 25 47  1  0
 25 48  1  0
 26 49  1  0
 27 50  1  0
 27 51  1  0
 28 52  1  0
 28 53  1  0
 29 54  1  0
 29 55  1  0
M  END
>  <meeko>  (4) 
{"is_sidechain": false}

>  <vina_affinity_kcal_mol>  (4) 
-7.957

>  <pose_rank>  (4) 
4

$$$$

     RDKit          3D

 55 59  0  0  0  0  0  0  0  0999 V2000
  -37.7330  147.2640   -2.3360 O   0  0  0  0  0  0  0  0  0  0  0  0
  -38.0730  146.2260   -1.3060 S   0  0  0  0  0  4  0  0  0  0  0  0
  -39.9010  146.2620   -1.1140 C   0  0  0  0  0  0  0  0  0  0  0  0
  -40.2260  147.4860   -0.2670 C   0  0  0  0  0  0  0  0  0  0  0  0
  -39.0750  147.6240    0.6900 C   0  0  0  0  0  0  0  0  0  0  0  0
  -39.2050  148.3060    1.8380 N   0  0  0  0  0  0  0  0  0  0  0  0
  -38.1000  148.4400    2.5870 C   0  0  0  0  0  0  0  0  0  0  0  0
  -38.1830  149.1280    3.7820 N   0  0  0  0  0  0  0  0  0  0  0  0
  -37.1950  148.8450    4.8180 C   0  0  0  0  0  0  0  0  0  0  0  0
  -36.6760  150.1390    5.4360 C   0  0  0  0  0  0  0  0  0  0  0  0
  -37.8150  150.9920    6.0140 C   0  0  0  0  0  0  0  0  0  0  0  0
  -37.3650  152.4310    6.1250 C   0  0  0  0  0  0  0  0  0  0  0  0
  -36.2320  152.7790    5.4810 N   0  0  0  0  0  0  0  0  0  0  0  0
  -35.8610  154.0760    5.5690 C   0  0  0  0  0  0  0  0  0  0  0  0
  -36.5720  155.0270    6.2610 C   0  0  0  0  0  0  0  0  0  0  0  0
  -36.0700  156.6580    6.3500 Cl  0  0  0  0  0  0  0  0  0  0  0  0
  -37.7130  154.5750    6.8790 C   0  0  0  0  0  0  0  0  0  0  0  0
  -38.1340  153.2900    6.8270 N   0  0  0  0  0  0  0  0  0  0  0  0
  -39.1230  150.8570    5.2170 C   0  0  0  0  0  0  0  0  0  0  0  0
  -38.8640  150.4190    3.7770 C   0  0  0  0  0  0  0  0  0  0  0  0
  -36.9180  147.8910    2.2340 N   0  0  0  0  0  0  0  0  0  0  0  0
  -36.8180  147.1930    1.0820 C   0  0  0  0  0  0  0  0  0  0  0  0
  -35.5390  146.6540    0.8680 N   0  0  0  0  0  0  0  0  0  0  0  0
  -34.5030  147.2100    0.0090 C   0  0  0  0  0  0  0  0  0  0  0  0
  -34.8500  148.6200   -0.4890 C   0  0  0  0  0  0  0  0  0  0  0  0
  -35.2250  148.6070   -1.8640 O   0  0  0  0  0  0  0  0  0  0  0  0
  -33.0730  146.9200    0.5520 C   0  0  0  0  0  0  0  0  0  0  0  0
  -32.6890  146.3620   -0.8290 C   0  0  0  0  0  0  0  0  0  0  0  0
  -34.1860  146.1710   -1.1200 C   0  0  0  0  0  0  0  0  0  0  0  0
  -37.9010  147.0510    0.2570 C   0  0  0  0  0  0  0  0  0  0  0  0
  -40.3845  146.3427   -2.0987 H   0  0  0  0  0  0  0  0  0  0  0  0
  -40.2679  145.3411   -0.6373 H   0  0  0  0  0  0  0  0  0  0  0  0
  -40.3098  148.3815   -0.9003 H   0  0  0  0  0  0  0  0  0  0  0  0
  -41.1858  147.3771    0.2593 H   0  0  0  0  0  0  0  0  0  0  0  0
  -37.6608  148.2313    5.6031 H   0  0  0  0  0  0  0  0  0  0  0  0
  -36.3503  148.3066    4.3634 H   0  0  0  0  0  0  0  0  0  0  0  0
  -35.9720  149.8905    6.2439 H   0  0  0  0  0  0  0  0  0  0  0  0
  -36.1805  150.7210    4.6450 H   0  0  0  0  0  0  0  0  0  0  0  0
  -38.0462  150.6136    7.0207 H   0  0  0  0  0  0  0  0  0  0  0  0
  -34.9381  154.3877    5.0580 H   0  0  0  0  0  0  0  0  0  0  0  0
  -38.3174  155.2974    7.4472 H   0  0  0  0  0  0  0  0  0  0  0  0
  -39.7637  150.1093    5.7073 H   0  0  0  0  0  0  0  0  0  0  0  0
  -39.6134  151.8413    5.1932 H   0  0  0  0  0  0  0  0  0  0  0  0
  -39.8211  150.3278    3.2426 H   0  0  0  0  0  0  0  0  0  0  0  0
  -38.2347  151.1663    3.2714 H   0  0  0  0  0  0  0  0  0  0  0  0
  -35.7490  145.6950    0.5820 H   0  0  0  0  0  0  0  0  0  0  0  0
  -35.6865  149.0144    0.1066 H   0  0  0  0  0  0  0  0  0  0  0  0
  -33.9591  149.2557   -0.3786 H   0  0  0  0  0  0  0  0  0  0  0  0
  -35.1210  149.5150   -2.1970 H   0  0  0  0  0  0  0  0  0  0  0  0
  -32.5112  147.8176    0.8498 H   0  0  0  0  0  0  0  0  0  0  0  0
  -32.9253  146.3225    1.4637 H   0  0  0  0  0  0  0  0  0  0  0  0
  -32.1856  147.0846   -1.4881 H   0  0  0  0  0  0  0  0  0  0  0  0
  -31.9770  145.5297   -0.9306 H   0  0  0  0  0  0  0  0  0  0  0  0
  -34.4965  146.4861   -2.1271 H   0  0  0  0  0  0  0  0  0  0  0  0
  -34.6422  145.1701   -1.1148 H   0  0  0  0  0  0  0  0  0  0  0  0
  1  2  2  0
  2  3  1  6
  3  4  1  0
  4  5  1  0
  5  6  2  0
  6  7  1  0
  7  8  1  0
  8  9  1  0
  9 10  1  0
 10 11  1  0
 11 12  1  0
 12 13  2  0
 13 14  1  0
 14 15  2  0
 15 16  1  0
 15 17  1  0
 17 18  2  0
 11 19  1  0
 19 20  1  0
  7 21  2  0
 21 22  1  0
 22 23  1  0
 23 24  1  0
 24 25  1  0
 25 26  1  0
 24 27  1  0
 27 28  1  0
 28 29  1  0
 22 30  2  0
 30  2  1  0
 30  5  1  0
 20  8  1  0
 29 24  1  0
 18 12  1  0
  3 31  1  0
  3 32  1  0
  4 33  1  0
  4 34  1  0
  9 35  1  0
  9 36  1  0
 10 37  1  0
 10 38  1  0
 11 39  1  0
 14 40  1  0
 17 41  1  0
 19 42  1  0
 19 43  1  0
 20 44  1  0
 20 45  1  0
 23 46  1  0
 25 47  1  0
 25 48  1  0
 26 49  1  0
 27 50  1  0
 27 51  1  0
 28 52  1  0
 28 53  1  0
 29 54  1  0
 29 55  1  0
M  END
>  <meeko>  (5) 
{"is_sidechain": false}

>  <vina_affinity_kcal_mol>  (5) 
-7.698

>  <pose_rank>  (5) 
5

$$$$

     RDKit          3D

 55 59  0  0  0  0  0  0  0  0999 V2000
  -36.7110  146.2430    7.1280 O   0  0  0  0  0  0  0  0  0  0  0  0
  -35.2880  146.5250    7.5110 S   0  0  0  0  0  4  0  0  0  0  0  0
  -35.2990  146.9220    9.3050 C   0  0  0  0  0  0  0  0  0  0  0  0
  -35.8180  148.3490    9.4330 C   0  0  0  0  0  0  0  0  0  0  0  0
  -35.3140  149.0650    8.2110 C   0  0  0  0  0  0  0  0  0  0  0  0
  -35.2090  150.4030    8.1860 N   0  0  0  0  0  0  0  0  0  0  0  0
  -34.8250  150.9530    7.0240 C   0  0  0  0  0  0  0  0  0  0  0  0
  -34.6940  152.3270    6.9470 N   0  0  0  0  0  0  0  0  0  0  0  0
  -33.6420  152.8790    6.1000 C   0  0  0  0  0  0  0  0  0  0  0  0
  -34.1760  154.0390    5.2660 C   0  0  0  0  0  0  0  0  0  0  0  0
  -34.7790  155.1440    6.1460 C   0  0  0  0  0  0  0  0  0  0  0  0
  -35.7350  155.9810    5.3250 C   0  0  0  0  0  0  0  0  0  0  0  0
  -35.2850  157.1650    4.8640 N   0  0  0  0  0  0  0  0  0  0  0  0
  -36.1440  157.8860    4.1090 C   0  0  0  0  0  0  0  0  0  0  0  0
  -37.4170  157.4720    3.7970 C   0  0  0  0  0  0  0  0  0  0  0  0
  -38.4750  158.4110    2.8390 Cl  0  0  0  0  0  0  0  0  0  0  0  0
  -37.7800  156.2490    4.3090 C   0  0  0  0  0  0  0  0  0  0  0  0
  -36.9640  155.4840    5.0710 N   0  0  0  0  0  0  0  0  0  0  0  0
  -35.4410  154.5970    7.4200 C   0  0  0  0  0  0  0  0  0  0  0  0
  -35.8670  153.1400    7.2530 C   0  0  0  0  0  0  0  0  0  0  0  0
  -34.5240  150.2100    5.9370 N   0  0  0  0  0  0  0  0  0  0  0  0
  -34.6200  148.8650    5.9950 C   0  0  0  0  0  0  0  0  0  0  0  0
  -34.2410  148.2290    4.8020 N   0  0  0  0  0  0  0  0  0  0  0  0
  -35.0790  148.0300    3.6270 C   0  0  0  0  0  0  0  0  0  0  0  0
  -36.5640  148.2900    3.9170 C   0  0  0  0  0  0  0  0  0  0  0  0
  -36.8910  149.6680    3.7520 O   0  0  0  0  0  0  0  0  0  0  0  0
  -34.4350  148.6250    2.3410 C   0  0  0  0  0  0  0  0  0  0  0  0
  -34.6510  147.2740    1.6380 C   0  0  0  0  0  0  0  0  0  0  0  0
  -34.7610  146.6200    3.0240 C   0  0  0  0  0  0  0  0  0  0  0  0
  -35.0410  148.2450    7.1400 C   0  0  0  0  0  0  0  0  0  0  0  0
  -35.9612  146.2278    9.8431 H   0  0  0  0  0  0  0  0  0  0  0  0
  -34.2925  146.8260    9.7383 H   0  0  0  0  0  0  0  0  0  0  0  0
  -36.9177  148.3583    9.4590 H   0  0  0  0  0  0  0  0  0  0  0  0
  -35.4739  148.8291   10.3610 H   0  0  0  0  0  0  0  0  0  0  0  0
  -32.8189  153.2392    6.7347 H   0  0  0  0  0  0  0  0  0  0  0  0
  -33.2834  152.0908    5.4217 H   0  0  0  0  0  0  0  0  0  0  0  0
  -33.3499  154.4640    4.6770 H   0  0  0  0  0  0  0  0  0  0  0  0
  -34.9704  153.6519    4.6109 H   0  0  0  0  0  0  0  0  0  0  0  0
  -33.9567  155.7846    6.4974 H   0  0  0  0  0  0  0  0  0  0  0  0
  -35.8051  158.8586    3.7227 H   0  0  0  0  0  0  0  0  0  0  0  0
  -38.7891  155.8714    4.0872 H   0  0  0  0  0  0  0  0  0  0  0  0
  -34.7247  154.6661    8.2520 H   0  0  0  0  0  0  0  0  0  0  0  0
  -36.3404  155.1965    7.6241 H   0  0  0  0  0  0  0  0  0  0  0  0
  -36.3286  152.7829    8.1854 H   0  0  0  0  0  0  0  0  0  0  0  0
  -36.5950  153.0605    6.4322 H   0  0  0  0  0  0  0  0  0  0  0  0
  -33.8910  147.3270    5.1350 H   0  0  0  0  0  0  0  0  0  0  0  0
  -37.1743  147.6916    3.2246 H   0  0  0  0  0  0  0  0  0  0  0  0
  -36.7685  148.0073    4.9602 H   0  0  0  0  0  0  0  0  0  0  0  0
  -36.7750  150.0940    4.6190 H   0  0  0  0  0  0  0  0  0  0  0  0
  -34.9969  149.4606    1.8983 H   0  0  0  0  0  0  0  0  0  0  0  0
  -33.4400  149.0930    2.3720 H   0  0  0  0  0  0  0  0  0  0  0  0
  -35.5681  147.2168    1.0334 H   0  0  0  0  0  0  0  0  0  0  0  0
  -33.9401  146.9017    0.8857 H   0  0  0  0  0  0  0  0  0  0  0  0
  -35.5794  145.8910    3.1182 H   0  0  0  0  0  0  0  0  0  0  0  0
  -33.9449  146.0017    3.4261 H   0  0  0  0  0  0  0  0  0  0  0  0
  1  2  2  0
  2  3  1  1
  3  4  1  0
  4  5  1  0
  5  6  2  0
  6  7  1  0
  7  8  1  0
  8  9  1  0
  9 10  1  0
 10 11  1  0
 11 12  1  0
 12 13  2  0
 13 14  1  0
 14 15  2  0
 15 16  1  0
 15 17  1  0
 17 18  2  0
 11 19  1  0
 19 20  1  0
  7 21  2  0
 21 22  1  0
 22 23  1  0
 23 24  1  0
 24 25  1  0
 25 26  1  0
 24 27  1  0
 27 28  1  0
 28 29  1  0
 22 30  2  0
 30  2  1  0
 30  5  1  0
 20  8  1  0
 29 24  1  0
 18 12  1  0
  3 31  1  0
  3 32  1  0
  4 33  1  0
  4 34  1  0
  9 35  1  0
  9 36  1  0
 10 37  1  0
 10 38  1  0
 11 39  1  0
 14 40  1  0
 17 41  1  0
 19 42  1  0
 19 43  1  0
 20 44  1  0
 20 45  1  0
 23 46  1  0
 25 47  1  0
 25 48  1  0
 26 49  1  0
 27 50  1  0
 27 51  1  0
 28 52  1  0
 28 53  1  0
 29 54  1  0
 29 55  1  0
M  END
>  <meeko>  (6) 
{"is_sidechain": false}

>  <vina_affinity_kcal_mol>  (6) 
-7.561

>  <pose_rank>  (6) 
6

$$$$

     RDKit          3D

 55 59  0  0  0  0  0  0  0  0999 V2000
  -34.1100  146.1490    8.1660 O   0  0  0  0  0  0  0  0  0  0  0  0
  -35.4440  146.6720    7.7220 S   0  0  0  0  0  4  0  0  0  0  0  0
  -35.4260  146.6550    5.8840 C   0  0  0  0  0  0  0  0  0  0  0  0
  -34.5940  147.8540    5.4450 C   0  0  0  0  0  0  0  0  0  0  0  0
  -34.8570  148.9180    6.4740 C   0  0  0  0  0  0  0  0  0  0  0  0
  -34.6450  150.2140    6.2000 N   0  0  0  0  0  0  0  0  0  0  0  0
  -34.8330  151.0790    7.2080 C   0  0  0  0  0  0  0  0  0  0  0  0
  -34.6350  152.4270    6.9760 N   0  0  0  0  0  0  0  0  0  0  0  0
  -33.6620  152.8230    5.9630 C   0  0  0  0  0  0  0  0  0  0  0  0
  -34.2250  153.9320    5.0800 C   0  0  0  0  0  0  0  0  0  0  0  0
  -34.6550  155.1540    5.9040 C   0  0  0  0  0  0  0  0  0  0  0  0
  -35.6540  155.9720    5.1140 C   0  0  0  0  0  0  0  0  0  0  0  0
  -35.2930  157.2230    4.7640 N   0  0  0  0  0  0  0  0  0  0  0  0
  -36.1880  157.9280    4.0360 C   0  0  0  0  0  0  0  0  0  0  0  0
  -37.4090  157.4350    3.6440 C   0  0  0  0  0  0  0  0  0  0  0  0
  -38.5140  158.3570    2.7220 Cl  0  0  0  0  0  0  0  0  0  0  0  0
  -37.6810  156.1490    4.0450 C   0  0  0  0  0  0  0  0  0  0  0  0
  -36.8270  155.3960    4.7760 N   0  0  0  0  0  0  0  0  0  0  0  0
  -35.1910  154.7770    7.2940 C   0  0  0  0  0  0  0  0  0  0  0  0
  -35.7150  153.3430    7.3270 C   0  0  0  0  0  0  0  0  0  0  0  0
  -35.2480  150.6850    8.4310 N   0  0  0  0  0  0  0  0  0  0  0  0
  -35.4720  149.3760    8.6750 C   0  0  0  0  0  0  0  0  0  0  0  0
  -35.9320  149.1240    9.9770 N   0  0  0  0  0  0  0  0  0  0  0  0
  -35.2190  149.4110   11.2140 C   0  0  0  0  0  0  0  0  0  0  0  0
  -33.8130  148.7950   11.2350 C   0  0  0  0  0  0  0  0  0  0  0  0
  -32.9770  149.3790   10.2390 O   0  0  0  0  0  0  0  0  0  0  0  0
  -35.4170  150.8850   11.6760 C   0  0  0  0  0  0  0  0  0  0  0  0
  -35.8290  150.3680   13.0640 C   0  0  0  0  0  0  0  0  0  0  0  0
  -36.1350  149.0070   12.4190 C   0  0  0  0  0  0  0  0  0  0  0  0
  -35.2640  148.4390    7.6990 C   0  0  0  0  0  0  0  0  0  0  0  0
  -34.9711  145.7229    5.5176 H   0  0  0  0  0  0  0  0  0  0  0  0
  -36.4464  146.7102    5.4770 H   0  0  0  0  0  0  0  0  0  0  0  0
  -33.5253  147.5943    5.4238 H   0  0  0  0  0  0  0  0  0  0  0  0
  -34.8605  148.1889    4.4317 H   0  0  0  0  0  0  0  0  0  0  0  0
  -32.7500  153.1850    6.4602 H   0  0  0  0  0  0  0  0  0  0  0  0
  -33.4323  151.9511    5.3329 H   0  0  0  0  0  0  0  0  0  0  0  0
  -33.4522  154.2415    4.3609 H   0  0  0  0  0  0  0  0  0  0  0  0
  -35.1125  153.5394    4.5621 H   0  0  0  0  0  0  0  0  0  0  0  0
  -33.7619  155.7678    6.0928 H   0  0  0  0  0  0  0  0  0  0  0  0
  -35.9236  158.9542    3.7409 H   0  0  0  0  0  0  0  0  0  0  0  0
  -38.6461  155.7075    3.7558 H   0  0  0  0  0  0  0  0  0  0  0  0
  -34.3783  154.8766    8.0286 H   0  0  0  0  0  0  0  0  0  0  0  0
  -36.0250  155.4526    7.5350 H   0  0  0  0  0  0  0  0  0  0  0  0
  -36.0817  153.1089    8.3373 H   0  0  0  0  0  0  0  0  0  0  0  0
  -36.5388  153.2349    6.6062 H   0  0  0  0  0  0  0  0  0  0  0  0
  -36.1720  148.1300    9.9380 H   0  0  0  0  0  0  0  0  0  0  0  0
  -33.3628  148.9632   12.2244 H   0  0  0  0  0  0  0  0  0  0  0  0
  -33.9022  147.7187   11.0261 H   0  0  0  0  0  0  0  0  0  0  0  0
  -33.3780  149.1770    9.3760 H   0  0  0  0  0  0  0  0  0  0  0  0
  -34.4971  151.4881   11.6722 H   0  0  0  0  0  0  0  0  0  0  0  0
  -36.0667  151.5712   11.1129 H   0  0  0  0  0  0  0  0  0  0  0  0
  -35.0144  150.3487   13.8029 H   0  0  0  0  0  0  0  0  0  0  0  0
  -36.5815  150.8949   13.6690 H   0  0  0  0  0  0  0  0  0  0  0  0
  -35.7740  148.1410   12.9933 H   0  0  0  0  0  0  0  0  0  0  0  0
  -37.1713  148.6750   12.2582 H   0  0  0  0  0  0  0  0  0  0  0  0
  1  2  2  0
  2  3  1  6
  3  4  1  0
  4  5  1  0
  5  6  2  0
  6  7  1  0
  7  8  1  0
  8  9  1  0
  9 10  1  0
 10 11  1  0
 11 12  1  0
 12 13  2  0
 13 14  1  0
 14 15  2  0
 15 16  1  0
 15 17  1  0
 17 18  2  0
 11 19  1  0
 19 20  1  0
  7 21  2  0
 21 22  1  0
 22 23  1  0
 23 24  1  0
 24 25  1  0
 25 26  1  0
 24 27  1  0
 27 28  1  0
 28 29  1  0
 22 30  2  0
 30  2  1  0
 30  5  1  0
 20  8  1  0
 29 24  1  0
 18 12  1  0
  3 31  1  0
  3 32  1  0
  4 33  1  0
  4 34  1  0
  9 35  1  0
  9 36  1  0
 10 37  1  0
 10 38  1  0
 11 39  1  0
 14 40  1  0
 17 41  1  0
 19 42  1  0
 19 43  1  0
 20 44  1  0
 20 45  1  0
 23 46  1  0
 25 47  1  0
 25 48  1  0
 26 49  1  0
 27 50  1  0
 27 51  1  0
 28 52  1  0
 28 53  1  0
 29 54  1  0
 29 55  1  0
M  END
>  <meeko>  (7) 
{"is_sidechain": false}

>  <vina_affinity_kcal_mol>  (7) 
-7.522

>  <pose_rank>  (7) 
7

$$$$

     RDKit          3D

 55 59  0  0  0  0  0  0  0  0999 V2000
  -33.4490  149.3020   10.0850 O   0  0  0  0  0  0  0  0  0  0  0  0
  -34.8330  149.6570    9.6280 S   0  0  0  0  0  4  0  0  0  0  0  0
  -35.9300  148.2870   10.1740 C   0  0  0  0  0  0  0  0  0  0  0  0
  -35.7000  147.1320    9.2070 C   0  0  0  0  0  0  0  0  0  0  0  0
  -35.4220  147.7770    7.8780 C   0  0  0  0  0  0  0  0  0  0  0  0
  -35.5910  147.1010    6.7310 N   0  0  0  0  0  0  0  0  0  0  0  0
  -35.2400  147.7360    5.6020 C   0  0  0  0  0  0  0  0  0  0  0  0
  -35.4010  147.0860    4.3940 N   0  0  0  0  0  0  0  0  0  0  0  0
  -36.7400  146.6480    4.0120 C   0  0  0  0  0  0  0  0  0  0  0  0
  -37.0230  146.9900    2.5530 C   0  0  0  0  0  0  0  0  0  0  0  0
  -35.9780  146.3740    1.6100 C   0  0  0  0  0  0  0  0  0  0  0  0
  -35.9660  147.1330    0.3020 C   0  0  0  0  0  0  0  0  0  0  0  0
  -35.9250  148.4790    0.3650 N   0  0  0  0  0  0  0  0  0  0  0  0
  -35.8870  149.1390   -0.8150 C   0  0  0  0  0  0  0  0  0  0  0  0
  -35.8830  148.5130   -2.0380 C   0  0  0  0  0  0  0  0  0  0  0  0
  -35.8340  149.3810   -3.5090 Cl  0  0  0  0  0  0  0  0  0  0  0  0
  -35.9220  147.1400   -1.9970 C   0  0  0  0  0  0  0  0  0  0  0  0
  -35.9620  146.4260   -0.8480 N   0  0  0  0  0  0  0  0  0  0  0  0
  -34.5790  146.2940    2.2420 C   0  0  0  0  0  0  0  0  0  0  0  0
  -34.4030  147.3240    3.3560 C   0  0  0  0  0  0  0  0  0  0  0  0
  -34.7740  149.0030    5.6020 N   0  0  0  0  0  0  0  0  0  0  0  0
  -34.6310  149.6670    6.7680 C   0  0  0  0  0  0  0  0  0  0  0  0
  -34.1700  150.9840    6.6060 N   0  0  0  0  0  0  0  0  0  0  0  0
  -34.9560  152.1220    6.1520 C   0  0  0  0  0  0  0  0  0  0  0  0
  -34.2040  152.9800    5.1230 C   0  0  0  0  0  0  0  0  0  0  0  0
  -33.6330  152.1740    4.0950 O   0  0  0  0  0  0  0  0  0  0  0  0
  -36.4430  151.7410    5.8900 C   0  0  0  0  0  0  0  0  0  0  0  0
  -36.8750  152.9180    6.7810 C   0  0  0  0  0  0  0  0  0  0  0  0
  -35.4730  152.9010    7.4090 C   0  0  0  0  0  0  0  0  0  0  0  0
  -34.9370  149.0620    7.9570 C   0  0  0  0  0  0  0  0  0  0  0  0
  -35.6731  147.9807   11.1988 H   0  0  0  0  0  0  0  0  0  0  0  0
  -36.9846  148.5998   10.1740 H   0  0  0  0  0  0  0  0  0  0  0  0
  -34.8403  146.5257    9.5284 H   0  0  0  0  0  0  0  0  0  0  0  0
  -36.5667  146.4562    9.1617 H   0  0  0  0  0  0  0  0  0  0  0  0
  -36.8167  145.5593    4.1491 H   0  0  0  0  0  0  0  0  0  0  0  0
  -37.4756  147.1651    4.6457 H   0  0  0  0  0  0  0  0  0  0  0  0
  -38.0173  146.6045    2.2832 H   0  0  0  0  0  0  0  0  0  0  0  0
  -36.9802  148.0837    2.4435 H   0  0  0  0  0  0  0  0  0  0  0  0
  -36.2695  145.3316    1.4140 H   0  0  0  0  0  0  0  0  0  0  0  0
  -35.8577  150.2384   -0.7943 H   0  0  0  0  0  0  0  0  0  0  0  0
  -35.9206  146.5912   -2.9503 H   0  0  0  0  0  0  0  0  0  0  0  0
  -34.4341  145.2873    2.6610 H   0  0  0  0  0  0  0  0  0  0  0  0
  -33.8361  146.5055    1.4588 H   0  0  0  0  0  0  0  0  0  0  0  0
  -33.3952  147.2309    3.7868 H   0  0  0  0  0  0  0  0  0  0  0  0
  -34.5317  148.3365    2.9458 H   0  0  0  0  0  0  0  0  0  0  0  0
  -33.3560  150.8590    5.9980 H   0  0  0  0  0  0  0  0  0  0  0  0
  -34.9071  153.6941    4.6695 H   0  0  0  0  0  0  0  0  0  0  0  0
  -33.3909  153.5100    5.6407 H   0  0  0  0  0  0  0  0  0  0  0  0
  -33.7370  151.2460    4.3700 H   0  0  0  0  0  0  0  0  0  0  0  0
  -36.7549  151.8305    4.8389 H   0  0  0  0  0  0  0  0  0  0  0  0
  -36.8078  150.7216    6.0843 H   0  0  0  0  0  0  0  0  0  0  0  0
  -37.1168  153.8400    6.2319 H   0  0  0  0  0  0  0  0  0  0  0  0
  -37.7801  152.8605    7.4035 H   0  0  0  0  0  0  0  0  0  0  0  0
  -35.0236  153.8960    7.5428 H   0  0  0  0  0  0  0  0  0  0  0  0
  -35.3108  152.5110    8.4247 H   0  0  0  0  0  0  0  0  0  0  0  0
  1  2  2  0
  2  3  1  1
  3  4  1  0
  4  5  1  0
  5  6  2  0
  6  7  1  0
  7  8  1  0
  8  9  1  0
  9 10  1  0
 10 11  1  0
 11 12  1  0
 12 13  2  0
 13 14  1  0
 14 15  2  0
 15 16  1  0
 15 17  1  0
 17 18  2  0
 11 19  1  0
 19 20  1  0
  7 21  2  0
 21 22  1  0
 22 23  1  0
 23 24  1  0
 24 25  1  0
 25 26  1  0
 24 27  1  0
 27 28  1  0
 28 29  1  0
 22 30  2  0
 30  2  1  0
 30  5  1  0
 20  8  1  0
 29 24  1  0
 18 12  1  0
  3 31  1  0
  3 32  1  0
  4 33  1  0
  4 34  1  0
  9 35  1  0
  9 36  1  0
 10 37  1  0
 10 38  1  0
 11 39  1  0
 14 40  1  0
 17 41  1  0
 19 42  1  0
 19 43  1  0
 20 44  1  0
 20 45  1  0
 23 46  1  0
 25 47  1  0
 25 48  1  0
 26 49  1  0
 27 50  1  0
 27 51  1  0
 28 52  1  0
 28 53  1  0
 29 54  1  0
 29 55  1  0
M  END
>  <meeko>  (8) 
{"is_sidechain": false}

>  <vina_affinity_kcal_mol>  (8) 
-7.457

>  <pose_rank>  (8) 
8

$$$$

     RDKit          3D

 55 59  0  0  0  0  0  0  0  0999 V2000
  -39.3080  145.7040    2.2970 O   0  0  0  0  0  0  0  0  0  0  0  0
  -37.8800  145.6170    2.7500 S   0  0  0  0  0  4  0  0  0  0  0  0
  -37.9020  144.7870    4.3900 C   0  0  0  0  0  0  0  0  0  0  0  0
  -38.3590  145.8320    5.4000 C   0  0  0  0  0  0  0  0  0  0  0  0
  -37.8050  147.1370    4.9010 C   0  0  0  0  0  0  0  0  0  0  0  0
  -37.6400  148.1810    5.7270 N   0  0  0  0  0  0  0  0  0  0  0  0
  -37.2150  149.3260    5.1710 C   0  0  0  0  0  0  0  0  0  0  0  0
  -37.0220  150.4290    5.9800 N   0  0  0  0  0  0  0  0  0  0  0  0
  -36.0160  150.3520    7.0340 C   0  0  0  0  0  0  0  0  0  0  0  0
  -35.1700  151.6210    7.0640 C   0  0  0  0  0  0  0  0  0  0  0  0
  -36.0320  152.8780    7.2500 C   0  0  0  0  0  0  0  0  0  0  0  0
  -35.2740  154.0910    6.7580 C   0  0  0  0  0  0  0  0  0  0  0  0
  -35.8930  155.2860    6.8430 N   0  0  0  0  0  0  0  0  0  0  0  0
  -35.1890  156.3620    6.4240 C   0  0  0  0  0  0  0  0  0  0  0  0
  -33.9070  156.2900    5.9360 C   0  0  0  0  0  0  0  0  0  0  0  0
  -33.0480  157.6730    5.4160 Cl  0  0  0  0  0  0  0  0  0  0  0  0
  -33.3620  155.0290    5.8940 C   0  0  0  0  0  0  0  0  0  0  0  0
  -34.0180  153.9170    6.2980 N   0  0  0  0  0  0  0  0  0  0  0  0
  -37.4140  152.7550    6.5880 C   0  0  0  0  0  0  0  0  0  0  0  0
  -37.4080  151.7340    5.4520 C   0  0  0  0  0  0  0  0  0  0  0  0
  -36.9290  149.4270    3.8550 N   0  0  0  0  0  0  0  0  0  0  0  0
  -37.0860  148.3550    3.0490 C   0  0  0  0  0  0  0  0  0  0  0  0
  -36.7160  148.6030    1.7170 N   0  0  0  0  0  0  0  0  0  0  0  0
  -35.4610  148.2200    1.0860 C   0  0  0  0  0  0  0  0  0  0  0  0
  -34.2600  148.3760    2.0310 C   0  0  0  0  0  0  0  0  0  0  0  0
  -34.0050  149.7470    2.3230 O   0  0  0  0  0  0  0  0  0  0  0  0
  -35.6030  146.9250    0.2350 C   0  0  0  0  0  0  0  0  0  0  0  0
  -34.9590  147.6630   -0.9510 C   0  0  0  0  0  0  0  0  0  0  0  0
  -35.3350  148.9890   -0.2730 C   0  0  0  0  0  0  0  0  0  0  0  0
  -37.5510  147.1690    3.5490 C   0  0  0  0  0  0  0  0  0  0  0  0
  -38.6030  143.9394    4.3771 H   0  0  0  0  0  0  0  0  0  0  0  0
  -36.9082  144.3929    4.6488 H   0  0  0  0  0  0  0  0  0  0  0  0
  -39.4575  145.8713    5.4430 H   0  0  0  0  0  0  0  0  0  0  0  0
  -38.0081  145.6001    6.4164 H   0  0  0  0  0  0  0  0  0  0  0  0
  -36.5185  150.2297    8.0048 H   0  0  0  0  0  0  0  0  0  0  0  0
  -35.3588  149.4929    6.8342 H   0  0  0  0  0  0  0  0  0  0  0  0
  -34.4556  151.5528    7.8977 H   0  0  0  0  0  0  0  0  0  0  0  0
  -34.6467  151.7054    6.1001 H   0  0  0  0  0  0  0  0  0  0  0  0
  -36.2325  152.9966    8.3251 H   0  0  0  0  0  0  0  0  0  0  0  0
  -35.6698  157.3499    6.4769 H   0  0  0  0  0  0  0  0  0  0  0  0
  -32.3368  154.9179    5.5111 H   0  0  0  0  0  0  0  0  0  0  0  0
  -38.1457  152.4399    7.3465 H   0  0  0  0  0  0  0  0  0  0  0  0
  -37.6804  153.7354    6.1662 H   0  0  0  0  0  0  0  0  0  0  0  0
  -38.4134  151.6693    5.0105 H   0  0  0  0  0  0  0  0  0  0  0  0
  -36.6905  152.0463    4.6789 H   0  0  0  0  0  0  0  0  0  0  0  0
  -36.8530  149.6130    1.6340 H   0  0  0  0  0  0  0  0  0  0  0  0
  -34.4713  147.8431    2.9698 H   0  0  0  0  0  0  0  0  0  0  0  0
  -33.3721  147.9558    1.5359 H   0  0  0  0  0  0  0  0  0  0  0  0
  -34.7530  150.2580    1.9680 H   0  0  0  0  0  0  0  0  0  0  0  0
  -35.0181  146.0715    0.6085 H   0  0  0  0  0  0  0  0  0  0  0  0
  -36.5763  146.4240    0.1272 H   0  0  0  0  0  0  0  0  0  0  0  0
  -33.8769  147.4967   -1.0576 H   0  0  0  0  0  0  0  0  0  0  0  0
  -35.2566  147.4471   -1.9877 H   0  0  0  0  0  0  0  0  0  0  0  0
  -34.5406  149.7497   -0.2920 H   0  0  0  0  0  0  0  0  0  0  0  0
  -36.1615  149.6068   -0.6541 H   0  0  0  0  0  0  0  0  0  0  0  0
  1  2  2  0
  2  3  1  1
  3  4  1  0
  4  5  1  0
  5  6  2  0
  6  7  1  0
  7  8  1  0
  8  9  1  0
  9 10  1  0
 10 11  1  0
 11 12  1  0
 12 13  2  0
 13 14  1  0
 14 15  2  0
 15 16  1  0
 15 17  1  0
 17 18  2  0
 11 19  1  0
 19 20  1  0
  7 21  2  0
 21 22  1  0
 22 23  1  0
 23 24  1  0
 24 25  1  0
 25 26  1  0
 24 27  1  0
 27 28  1  0
 28 29  1  0
 22 30  2  0
 30  2  1  0
 30  5  1  0
 20  8  1  0
 29 24  1  0
 18 12  1  0
  3 31  1  0
  3 32  1  0
  4 33  1  0
  4 34  1  0
  9 35  1  0
  9 36  1  0
 10 37  1  0
 10 38  1  0
 11 39  1  0
 14 40  1  0
 17 41  1  0
 19 42  1  0
 19 43  1  0
 20 44  1  0
 20 45  1  0
 23 46  1  0
 25 47  1  0
 25 48  1  0
 26 49  1  0
 27 50  1  0
 27 51  1  0
 28 52  1  0
 28 53  1  0
 29 54  1  0
 29 55  1  0
M  END
>  <meeko>  (9) 
{"is_sidechain": false}

>  <vina_affinity_kcal_mol>  (9) 
-7.425

>  <pose_rank>  (9) 
9

$$$$

     RDKit          3D

 55 59  0  0  0  0  0  0  0  0999 V2000
  -40.9050  146.0830   -2.8980 O   0  0  0  0  0  0  0  0  0  0  0  0
  -39.9360  145.3660   -2.0040 S   0  0  0  0  0  4  0  0  0  0  0  0
  -40.9420  144.2970   -0.8970 C   0  0  0  0  0  0  0  0  0  0  0  0
  -41.5420  145.2110    0.1640 C   0  0  0  0  0  0  0  0  0  0  0  0
  -40.5070  146.2750    0.4020 C   0  0  0  0  0  0  0  0  0  0  0  0
  -40.4950  146.9870    1.5400 N   0  0  0  0  0  0  0  0  0  0  0  0
  -39.5830  147.9680    1.6250 C   0  0  0  0  0  0  0  0  0  0  0  0
  -39.5240  148.7260    2.7780 N   0  0  0  0  0  0  0  0  0  0  0  0
  -39.0650  148.0880    4.0080 C   0  0  0  0  0  0  0  0  0  0  0  0
  -38.0750  148.9860    4.7430 C   0  0  0  0  0  0  0  0  0  0  0  0
  -38.6780  150.3630    5.0570 C   0  0  0  0  0  0  0  0  0  0  0  0
  -37.5660  151.3630    5.2850 C   0  0  0  0  0  0  0  0  0  0  0  0
  -37.8630  152.6680    5.1270 N   0  0  0  0  0  0  0  0  0  0  0  0
  -36.8640  153.5480    5.3620 C   0  0  0  0  0  0  0  0  0  0  0  0
  -35.5980  153.1790    5.7490 C   0  0  0  0  0  0  0  0  0  0  0  0
  -34.3610  154.3210    6.0370 Cl  0  0  0  0  0  0  0  0  0  0  0  0
  -35.3960  151.8270    5.8870 C   0  0  0  0  0  0  0  0  0  0  0  0
  -36.3560  150.8990    5.6650 N   0  0  0  0  0  0  0  0  0  0  0  0
  -39.6690  150.8380    3.9830 C   0  0  0  0  0  0  0  0  0  0  0  0
  -39.4020  150.1730    2.6350 C   0  0  0  0  0  0  0  0  0  0  0  0
  -38.6930  148.2140    0.6390 N   0  0  0  0  0  0  0  0  0  0  0  0
  -38.7150  147.4700   -0.4870 C   0  0  0  0  0  0  0  0  0  0  0  0
  -37.7100  147.8190   -1.4040 N   0  0  0  0  0  0  0  0  0  0  0  0
  -36.2760  147.6460   -1.2180 C   0  0  0  0  0  0  0  0  0  0  0  0
  -35.5780  148.9510   -0.8060 C   0  0  0  0  0  0  0  0  0  0  0  0
  -35.8810  149.2970    0.5430 O   0  0  0  0  0  0  0  0  0  0  0  0
  -35.9370  146.3270   -0.4650 C   0  0  0  0  0  0  0  0  0  0  0  0
  -34.9460  145.9710   -1.5850 C   0  0  0  0  0  0  0  0  0  0  0  0
  -35.6890  146.9590   -2.4970 C   0  0  0  0  0  0  0  0  0  0  0  0
  -39.6440  146.4780   -0.6500 C   0  0  0  0  0  0  0  0  0  0  0  0
  -41.7416  143.8041   -1.4694 H   0  0  0  0  0  0  0  0  0  0  0  0
  -40.3258  143.5092   -0.4392 H   0  0  0  0  0  0  0  0  0  0  0  0
  -42.4789  145.6590   -0.1985 H   0  0  0  0  0  0  0  0  0  0  0  0
  -41.7870  144.6635    1.0861 H   0  0  0  0  0  0  0  0  0  0  0  0
  -39.9301  147.8949    4.6594 H   0  0  0  0  0  0  0  0  0  0  0  0
  -38.5631  147.1435    3.7510 H   0  0  0  0  0  0  0  0  0  0  0  0
  -37.7864  148.5001    5.6868 H   0  0  0  0  0  0  0  0  0  0  0  0
  -37.2011  149.1360    4.0920 H   0  0  0  0  0  0  0  0  0  0  0  0
  -39.2699  150.2729    5.9798 H   0  0  0  0  0  0  0  0  0  0  0  0
  -37.0765  154.6200    5.2364 H   0  0  0  0  0  0  0  0  0  0  0  0
  -34.3988  151.4795    6.1950 H   0  0  0  0  0  0  0  0  0  0  0  0
  -40.6909  150.5906    4.3064 H   0  0  0  0  0  0  0  0  0  0  0  0
  -39.5467  151.9242    3.8598 H   0  0  0  0  0  0  0  0  0  0  0  0
  -40.1341  150.5322    1.8967 H   0  0  0  0  0  0  0  0  0  0  0  0
  -38.3868  150.4252    2.2946 H   0  0  0  0  0  0  0  0  0  0  0  0
  -37.9190  148.8020   -1.5970 H   0  0  0  0  0  0  0  0  0  0  0  0
  -34.4902  148.8229   -0.9074 H   0  0  0  0  0  0  0  0  0  0  0  0
  -35.9376  149.7586   -1.4606 H   0  0  0  0  0  0  0  0  0  0  0  0
  -36.1310  150.2360    0.5470 H   0  0  0  0  0  0  0  0  0  0  0  0
  -35.4718  146.4753    0.5207 H   0  0  0  0  0  0  0  0  0  0  0  0
  -36.7310  145.6254   -0.1694 H   0  0  0  0  0  0  0  0  0  0  0  0
  -33.9018  146.2441   -1.3729 H   0  0  0  0  0  0  0  0  0  0  0  0
  -34.7796  144.9272   -1.8896 H   0  0  0  0  0  0  0  0  0  0  0  0
  -35.0315  147.6046   -3.0977 H   0  0  0  0  0  0  0  0  0  0  0  0
  -36.3476  146.6025   -3.3027 H   0  0  0  0  0  0  0  0  0  0  0  0
  1  2  2  0
  2  3  1  1
  3  4  1  0
  4  5  1  0
  5  6  2  0
  6  7  1  0
  7  8  1  0
  8  9  1  0
  9 10  1  0
 10 11  1  0
 11 12  1  0
 12 13  2  0
 13 14  1  0
 14 15  2  0
 15 16  1  0
 15 17  1  0
 17 18  2  0
 11 19  1  0
 19 20  1  0
  7 21  2  0
 21 22  1  0
 22 23  1  0
 23 24  1  0
 24 25  1  0
 25 26  1  0
 24 27  1  0
 27 28  1  0
 28 29  1  0
 22 30  2  0
 30  2  1  0
 30  5  1  0
 20  8  1  0
 29 24  1  0
 18 12  1  0
  3 31  1  0
  3 32  1  0
  4 33  1  0
  4 34  1  0
  9 35  1  0
  9 36  1  0
 10 37  1  0
 10 38  1  0
 11 39  1  0
 14 40  1  0
 17 41  1  0
 19 42  1  0
 19 43  1  0
 20 44  1  0
 20 45  1  0
 23 46  1  0
 25 47  1  0
 25 48  1  0
 26 49  1  0
 27 50  1  0
 27 51  1  0
 28 52  1  0
 28 53  1  0
 29 54  1  0
 29 55  1  0
M  END
>  <meeko>  (10) 
{"is_sidechain": false}

>  <vina_affinity_kcal_mol>  (10) 
-7.423

>  <pose_rank>  (10) 
10

$$$$
