
     RDKit          3D

 64 69  0  0  0  0  0  0  0  0999 V2000
  -38.6370  147.5860    6.7100 C   0  0  0  0  0  0  0  0  0  0  0  0
  -37.5840  148.5300    6.9980 N   0  0  0  0  0  0  0  0  0  0  0  0
  -37.3400  149.7080    6.3570 C   0  0  0  0  0  0  0  0  0  0  0  0
  -36.2420  150.2570    6.9770 C   0  0  0  0  0  0  0  0  0  0  0  0
  -35.5710  151.5130    6.6780 C   0  0  0  0  0  0  0  0  0  0  0  0
  -36.1940  152.6930    6.1960 C   0  0  0  0  0  0  0  0  0  0  0  0
  -35.2040  153.6470    6.0280 C   0  0  0  0  0  0  0  0  0  0  0  0
  -35.1790  155.0180    5.5860 C   0  0  0  0  0  0  0  0  0  0  0  0
  -36.2490  155.7290    5.0610 N   0  0  0  0  0  0  0  0  0  0  0  0
  -36.4320  157.1480    5.4310 C   0  0  0  0  0  0  0  0  0  0  0  0
  -36.9990  157.9760    4.2620 C   0  0  0  0  0  0  0  0  0  0  0  0
  -38.2170  157.3500    3.7220 N   0  0  0  0  0  0  0  0  0  0  0  0
  -38.8510  158.1190    2.7410 C   0  0  0  0  0  0  0  0  0  0  0  0
  -40.1730  158.3280    2.8310 N   0  0  0  0  0  0  0  0  0  0  0  0
  -40.7650  159.0540    1.8580 C   0  0  0  0  0  0  0  0  0  0  0  0
  -40.1080  159.6090    0.7780 C   0  0  0  0  0  0  0  0  0  0  0  0
  -40.8290  160.4140   -0.2950 C   0  0  1  0  0  0  0  0  0  0  0  0
  -42.1510  159.7560   -0.7690 C   0  0  0  0  0  0  0  0  0  0  0  0
  -41.2440  161.6880    0.3140 N   0  0  0  0  0  0  0  0  0  0  0  0
  -39.9480  160.6080   -1.5560 C   0  0  0  0  0  0  0  0  0  0  0  0
  -39.7420  161.9110   -2.0640 C   0  0  0  0  0  0  0  0  0  0  0  0
  -38.9600  162.1320   -3.2000 C   0  0  0  0  0  0  0  0  0  0  0  0
  -38.3710  161.0550   -3.8440 C   0  0  0  0  0  0  0  0  0  0  0  0
  -37.6200  161.2640   -4.9330 F   0  0  0  0  0  0  0  0  0  0  0  0
  -38.5520  159.7610   -3.3750 C   0  0  0  0  0  0  0  0  0  0  0  0
  -39.3360  159.5370   -2.2380 C   0  0  0  0  0  0  0  0  0  0  0  0
  -38.7620  159.3150    0.7660 C   0  0  0  0  0  0  0  0  0  0  0  0
  -38.1250  158.5990    1.7200 N   0  0  0  0  0  0  0  0  0  0  0  0
  -38.0500  155.9390    3.3460 C   0  0  0  0  0  0  0  0  0  0  0  0
  -37.4620  155.1120    4.5100 C   0  0  0  0  0  0  0  0  0  0  0  0
  -34.0360  155.6400    5.6900 N   0  0  0  0  0  0  0  0  0  0  0  0
  -32.9280  154.9780    6.1490 C   0  0  0  0  0  0  0  0  0  0  0  0
  -32.8570  153.7410    6.5220 N   0  0  0  0  0  0  0  0  0  0  0  0
  -34.0290  153.0950    6.4520 N   0  0  0  0  0  0  0  0  0  0  0  0
  -34.2310  151.7930    6.8180 C   0  0  0  0  0  0  0  0  0  0  0  0
  -35.9000  149.3290    7.9820 C   0  0  0  0  0  0  0  0  0  0  0  0
  -36.7200  148.2720    7.9990 N   0  0  0  0  0  0  0  0  0  0  0  0
  -39.0586  147.2080    7.6531 H   0  0  0  0  0  0  0  0  0  0  0  0
  -39.4270  148.0840    6.1287 H   0  0  0  0  0  0  0  0  0  0  0  0
  -38.2280  146.7465    6.1287 H   0  0  0  0  0  0  0  0  0  0  0  0
  -37.9062  150.1330    5.5151 H   0  0  0  0  0  0  0  0  0  0  0  0
  -37.2669  152.8259    5.9929 H   0  0  0  0  0  0  0  0  0  0  0  0
  -37.1287  157.2075    6.2802 H   0  0  0  0  0  0  0  0  0  0  0  0
  -35.4480  157.5615    5.6969 H   0  0  0  0  0  0  0  0  0  0  0  0
  -37.2415  158.9873    4.6204 H   0  0  0  0  0  0  0  0  0  0  0  0
  -36.2433  158.0241    3.4642 H   0  0  0  0  0  0  0  0  0  0  0  0
  -41.8507  159.2149    1.9315 H   0  0  0  0  0  0  0  0  0  0  0  0
  -42.7473  159.4592    0.1064 H   0  0  0  0  0  0  0  0  0  0  0  0
  -42.7219  160.4751   -1.3748 H   0  0  0  0  0  0  0  0  0  0  0  0
  -41.9215  158.8670   -1.3748 H   0  0  0  0  0  0  0  0  0  0  0  0
  -40.6720  162.4490   -0.0460 H   0  0  0  0  0  0  0  0  0  0  0  0
  -41.1130  161.6530    1.3230 H   0  0  0  0  0  0  0  0  0  0  0  0
  -40.2068  162.7679   -1.5545 H   0  0  0  0  0  0  0  0  0  0  0  0
  -38.8126  163.1534   -3.5809 H   0  0  0  0  0  0  0  0  0  0  0  0
  -38.0805  158.9144   -3.8956 H   0  0  0  0  0  0  0  0  0  0  0  0
  -39.4769  158.5097   -1.8708 H   0  0  0  0  0  0  0  0  0  0  0  0
  -38.1640  159.6887   -0.0783 H   0  0  0  0  0  0  0  0  0  0  0  0
  -39.0306  155.5233    3.0711 H   0  0  0  0  0  0  0  0  0  0  0  0
  -37.3524  155.8870    2.4971 H   0  0  0  0  0  0  0  0  0  0  0  0
  -38.2155  155.0346    5.3076 H   0  0  0  0  0  0  0  0  0  0  0  0
  -37.1932  154.1187    4.1212 H   0  0  0  0  0  0  0  0  0  0  0  0
  -31.9973  155.5615    6.2068 H   0  0  0  0  0  0  0  0  0  0  0  0
  -33.4573  151.0918    7.1640 H   0  0  0  0  0  0  0  0  0  0  0  0
  -35.0547  149.4593    8.6737 H   0  0  0  0  0  0  0  0  0  0  0  0
  1  2  1  0
  2  3  1  0
  3  4  2  0
  4  5  1  0
  5  6  1  0
  6  7  2  0
  7  8  1  0
  8  9  1  0
  9 10  1  0
 10 11  1  0
 11 12  1  0
 12 13  1  0
 13 14  2  0
 14 15  1  0
 15 16  2  0
 16 17  1  0
 17 18  1  0
 17 19  1  1
 17 20  1  0
 20 21  1  0
 21 22  2  0
 22 23  1  0
 23 24  1  0
 23 25  2  0
 25 26  1  0
 16 27  1  0
 27 28  2  0
 12 29  1  0
 29 30  1  0
  8 31  2  0
 31 32  1  0
 32 33  2  0
 33 34  1  0
 34 35  1  0
  4 36  1  0
 36 37  2  0
 37  2  1  0
 35  5  2  0
 34  7  1  0
 30  9  1  0
 28 13  1  0
 26 20  2  0
  1 38  1  0
  1 39  1  0
  1 40  1  0
  3 41  1  0
  6 42  1  0
 10 43  1  0
 10 44  1  0
 11 45  1  0
 11 46  1  0
 15 47  1  0
 18 48  1  0
 18 49  1  0
 18 50  1  0
 19 51  1  0
 19 52  1  0
 21 53  1  0
 22 54  1  0
 25 55  1  0
 26 56  1  0
 27 57  1  0
 29 58  1  0
 29 59  1  0
 30 60  1  0
 30 61  1  0
 32 62  1  0
 35 63  1  0
 36 64  1  0
M  END
>  <meeko>  (1) 
{"is_sidechain": false}

>  <vina_affinity_kcal_mol>  (1) 
-9.458

>  <pose_rank>  (1) 
1

$$$$

     RDKit          3D

 64 69  0  0  0  0  0  0  0  0999 V2000
  -39.5400  159.2900   -0.8020 C   0  0  0  0  0  0  0  0  0  0  0  0
  -39.3850  158.8440    0.5610 N   0  0  0  0  0  0  0  0  0  0  0  0
  -38.2560  158.3380    1.1360 C   0  0  0  0  0  0  0  0  0  0  0  0
  -38.5900  158.0530    2.4400 C   0  0  0  0  0  0  0  0  0  0  0  0
  -37.7470  157.4950    3.4860 C   0  0  0  0  0  0  0  0  0  0  0  0
  -37.6130  156.1170    3.7970 C   0  0  0  0  0  0  0  0  0  0  0  0
  -36.7320  156.0140    4.8620 C   0  0  0  0  0  0  0  0  0  0  0  0
  -36.1850  154.9230    5.6250 C   0  0  0  0  0  0  0  0  0  0  0  0
  -36.5510  153.5880    5.5260 N   0  0  0  0  0  0  0  0  0  0  0  0
  -35.5130  152.5400    5.6090 C   0  0  0  0  0  0  0  0  0  0  0  0
  -36.0330  151.2750    6.3180 C   0  0  0  0  0  0  0  0  0  0  0  0
  -37.2860  150.8090    5.7010 N   0  0  0  0  0  0  0  0  0  0  0  0
  -37.7430  149.5930    6.2170 C   0  0  0  0  0  0  0  0  0  0  0  0
  -39.0200  149.4920    6.6130 N   0  0  0  0  0  0  0  0  0  0  0  0
  -39.4300  148.3130    7.1300 C   0  0  0  0  0  0  0  0  0  0  0  0
  -38.6320  147.1950    7.2730 C   0  0  0  0  0  0  0  0  0  0  0  0
  -39.1460  145.8920    7.8700 C   0  0  1  0  0  0  0  0  0  0  0  0
  -38.2090  144.6850    7.6060 C   0  0  0  0  0  0  0  0  0  0  0  0
  -39.1500  146.0490    9.3330 N   0  0  0  0  0  0  0  0  0  0  0  0
  -40.5370  145.5100    7.3020 C   0  0  0  0  0  0  0  0  0  0  0  0
  -41.6760  145.6040    8.1340 C   0  0  0  0  0  0  0  0  0  0  0  0
  -42.9480  145.2670    7.6640 C   0  0  0  0  0  0  0  0  0  0  0  0
  -43.1010  144.8310    6.3570 C   0  0  0  0  0  0  0  0  0  0  0  0
  -44.3190  144.5070    5.9050 F   0  0  0  0  0  0  0  0  0  0  0  0
  -42.0050  144.7250    5.5110 C   0  0  0  0  0  0  0  0  0  0  0  0
  -40.7310  145.0620    5.9790 C   0  0  0  0  0  0  0  0  0  0  0  0
  -37.3350  147.4110    6.8610 C   0  0  0  0  0  0  0  0  0  0  0  0
  -36.8820  148.5700    6.3320 N   0  0  0  0  0  0  0  0  0  0  0  0
  -38.3300  151.8410    5.6130 C   0  0  0  0  0  0  0  0  0  0  0  0
  -37.8030  153.1180    4.9230 C   0  0  0  0  0  0  0  0  0  0  0  0
  -35.2590  155.2300    6.4940 N   0  0  0  0  0  0  0  0  0  0  0  0
  -34.8910  156.5370    6.6800 C   0  0  0  0  0  0  0  0  0  0  0  0
  -35.3640  157.5750    6.0680 N   0  0  0  0  0  0  0  0  0  0  0  0
  -36.2930  157.2750    5.1510 N   0  0  0  0  0  0  0  0  0  0  0  0
  -36.9240  158.1840    4.3470 C   0  0  0  0  0  0  0  0  0  0  0  0
  -39.9450  158.4260    2.5500 C   0  0  0  0  0  0  0  0  0  0  0  0
  -40.4340  158.9120    1.4030 N   0  0  0  0  0  0  0  0  0  0  0  0
  -39.9011  160.3290   -0.8090 H   0  0  0  0  0  0  0  0  0  0  0  0
  -38.5702  159.2354   -1.3182 H   0  0  0  0  0  0  0  0  0  0  0  0
  -40.2669  158.6457   -1.3182 H   0  0  0  0  0  0  0  0  0  0  0  0
  -37.2780  158.1884    0.6551 H   0  0  0  0  0  0  0  0  0  0  0  0
  -38.1164  155.2829    3.2862 H   0  0  0  0  0  0  0  0  0  0  0  0
  -35.1951  152.2722    4.5906 H   0  0  0  0  0  0  0  0  0  0  0  0
  -34.6709  152.9382    6.1940 H   0  0  0  0  0  0  0  0  0  0  0  0
  -35.2757  150.4810    6.2408 H   0  0  0  0  0  0  0  0  0  0  0  0
  -36.2275  151.5164    7.3734 H   0  0  0  0  0  0  0  0  0  0  0  0
  -40.4762  148.2381    7.4613 H   0  0  0  0  0  0  0  0  0  0  0  0
  -37.8792  144.2601    8.5655 H   0  0  0  0  0  0  0  0  0  0  0  0
  -38.7510  143.9186    7.0326 H   0  0  0  0  0  0  0  0  0  0  0  0
  -37.3321  145.0201    7.0326 H   0  0  0  0  0  0  0  0  0  0  0  0
  -39.4880  146.9750    9.5840 H   0  0  0  0  0  0  0  0  0  0  0  0
  -38.2040  145.9560    9.6980 H   0  0  0  0  0  0  0  0  0  0  0  0
  -41.5586  145.9492    9.1718 H   0  0  0  0  0  0  0  0  0  0  0  0
  -43.8222  145.3471    8.3268 H   0  0  0  0  0  0  0  0  0  0  0  0
  -42.1385  144.3771    4.4760 H   0  0  0  0  0  0  0  0  0  0  0  0
  -39.8664  144.9762    5.3044 H   0  0  0  0  0  0  0  0  0  0  0  0
  -36.6186  146.5834    6.9700 H   0  0  0  0  0  0  0  0  0  0  0  0
  -39.1770  151.4448    5.0337 H   0  0  0  0  0  0  0  0  0  0  0  0
  -38.6442  152.1036    6.6339 H   0  0  0  0  0  0  0  0  0  0  0  0
  -37.6258  152.9003    3.8594 H   0  0  0  0  0  0  0  0  0  0  0  0
  -38.5583  153.9083    5.0453 H   0  0  0  0  0  0  0  0  0  0  0  0
  -34.1090  156.7243    7.4306 H   0  0  0  0  0  0  0  0  0  0  0  0
  -36.7958  159.2759    4.3825 H   0  0  0  0  0  0  0  0  0  0  0  0
  -40.5338  158.3286    3.4741 H   0  0  0  0  0  0  0  0  0  0  0  0
  1  2  1  0
  2  3  1  0
  3  4  2  0
  4  5  1  0
  5  6  1  0
  6  7  2  0
  7  8  1  0
  8  9  1  0
  9 10  1  0
 10 11  1  0
 11 12  1  0
 12 13  1  0
 13 14  2  0
 14 15  1  0
 15 16  2  0
 16 17  1  0
 17 18  1  0
 17 19  1  1
 17 20  1  0
 20 21  1  0
 21 22  2  0
 22 23  1  0
 23 24  1  0
 23 25  2  0
 25 26  1  0
 16 27  1  0
 27 28  2  0
 12 29  1  0
 29 30  1  0
  8 31  2  0
 31 32  1  0
 32 33  2  0
 33 34  1  0
 34 35  1  0
  4 36  1  0
 36 37  2  0
 37  2  1  0
 35  5  2  0
 34  7  1  0
 30  9  1  0
 28 13  1  0
 26 20  2  0
  1 38  1  0
  1 39  1  0
  1 40  1  0
  3 41  1  0
  6 42  1  0
 10 43  1  0
 10 44  1  0
 11 45  1  0
 11 46  1  0
 15 47  1  0
 18 48  1  0
 18 49  1  0
 18 50  1  0
 19 51  1  0
 19 52  1  0
 21 53  1  0
 22 54  1  0
 25 55  1  0
 26 56  1  0
 27 57  1  0
 29 58  1  0
 29 59  1  0
 30 60  1  0
 30 61  1  0
 32 62  1  0
 35 63  1  0
 36 64  1  0
M  END
>  <meeko>  (2) 
{"is_sidechain": false}

>  <vina_affinity_kcal_mol>  (2) 
-8.935

>  <pose_rank>  (2) 
2

$$$$

     RDKit          3D

 64 69  0  0  0  0  0  0  0  0999 V2000
  -36.1850  156.7140    6.9890 C   0  0  0  0  0  0  0  0  0  0  0  0
  -36.5680  155.3260    6.8890 N   0  0  0  0  0  0  0  0  0  0  0  0
  -35.7390  154.2570    6.7200 C   0  0  0  0  0  0  0  0  0  0  0  0
  -36.5540  153.1490    6.6810 C   0  0  0  0  0  0  0  0  0  0  0  0
  -36.1720  151.7540    6.5190 C   0  0  0  0  0  0  0  0  0  0  0  0
  -36.4470  150.9440    5.3870 C   0  0  0  0  0  0  0  0  0  0  0  0
  -35.9310  149.6840    5.6410 C   0  0  0  0  0  0  0  0  0  0  0  0
  -35.8740  148.4440    4.9110 C   0  0  0  0  0  0  0  0  0  0  0  0
  -36.4980  148.1750    3.7010 N   0  0  0  0  0  0  0  0  0  0  0  0
  -35.7910  147.3780    2.6780 C   0  0  0  0  0  0  0  0  0  0  0  0
  -36.7580  146.4830    1.8810 C   0  0  0  0  0  0  0  0  0  0  0  0
  -37.8740  147.2740    1.3370 N   0  0  0  0  0  0  0  0  0  0  0  0
  -38.7190  146.5430    0.4970 C   0  0  0  0  0  0  0  0  0  0  0  0
  -38.1810  145.7930   -0.4760 N   0  0  0  0  0  0  0  0  0  0  0  0
  -39.0210  145.1160   -1.2890 C   0  0  0  0  0  0  0  0  0  0  0  0
  -40.3980  145.1290   -1.1860 C   0  0  0  0  0  0  0  0  0  0  0  0
  -41.2970  144.3490   -2.1360 C   0  0  1  0  0  0  0  0  0  0  0  0
  -40.8020  142.9040   -2.4010 C   0  0  0  0  0  0  0  0  0  0  0  0
  -42.6000  144.1820   -1.4730 N   0  0  0  0  0  0  0  0  0  0  0  0
  -41.4110  145.0430   -3.5180 C   0  0  0  0  0  0  0  0  0  0  0  0
  -41.7260  144.2700   -4.6590 C   0  0  0  0  0  0  0  0  0  0  0  0
  -41.8350  144.8530   -5.9230 C   0  0  0  0  0  0  0  0  0  0  0  0
  -41.6310  146.2170   -6.0680 C   0  0  0  0  0  0  0  0  0  0  0  0
  -41.7340  146.7780   -7.2790 F   0  0  0  0  0  0  0  0  0  0  0  0
  -41.3180  147.0070   -4.9710 C   0  0  0  0  0  0  0  0  0  0  0  0
  -41.2080  146.4260   -3.7030 C   0  0  0  0  0  0  0  0  0  0  0  0
  -40.8490  145.9480   -0.1740 C   0  0  0  0  0  0  0  0  0  0  0  0
  -40.0470  146.6380    0.6670 N   0  0  0  0  0  0  0  0  0  0  0  0
  -38.5890  148.0720    2.3430 C   0  0  0  0  0  0  0  0  0  0  0  0
  -37.6180  148.9540    3.1580 C   0  0  0  0  0  0  0  0  0  0  0  0
  -35.1690  147.4860    5.4500 N   0  0  0  0  0  0  0  0  0  0  0  0
  -34.5730  147.6680    6.6710 C   0  0  0  0  0  0  0  0  0  0  0  0
  -34.6130  148.7320    7.4070 N   0  0  0  0  0  0  0  0  0  0  0  0
  -35.3070  149.7360    6.8550 N   0  0  0  0  0  0  0  0  0  0  0  0
  -35.4730  150.9750    7.4110 C   0  0  0  0  0  0  0  0  0  0  0  0
  -37.8580  153.6610    6.8360 C   0  0  0  0  0  0  0  0  0  0  0  0
  -37.8700  154.9920    6.9650 N   0  0  0  0  0  0  0  0  0  0  0  0
  -36.1068  156.9973    8.0490 H   0  0  0  0  0  0  0  0  0  0  0  0
  -35.2124  156.8623    6.4971 H   0  0  0  0  0  0  0  0  0  0  0  0
  -36.9439  157.3401    6.4971 H   0  0  0  0  0  0  0  0  0  0  0  0
  -34.6426  154.2763    6.6327 H   0  0  0  0  0  0  0  0  0  0  0  0
  -36.9738  151.2592    4.4743 H   0  0  0  0  0  0  0  0  0  0  0  0
  -35.2834  148.0620    1.9819 H   0  0  0  0  0  0  0  0  0  0  0  0
  -35.0676  146.7275    3.1913 H   0  0  0  0  0  0  0  0  0  0  0  0
  -36.2117  146.0116    1.0508 H   0  0  0  0  0  0  0  0  0  0  0  0
  -37.1655  145.7158    2.5557 H   0  0  0  0  0  0  0  0  0  0  0  0
  -38.5755  144.5101   -2.0918 H   0  0  0  0  0  0  0  0  0  0  0  0
  -40.6275  142.3945   -1.4419 H   0  0  0  0  0  0  0  0  0  0  0  0
  -41.5633  142.3550   -2.9746 H   0  0  0  0  0  0  0  0  0  0  0  0
  -39.8640  142.9372   -2.9746 H   0  0  0  0  0  0  0  0  0  0  0  0
  -42.5160  144.3930   -0.4810 H   0  0  0  0  0  0  0  0  0  0  0  0
  -42.9150  143.2170   -1.5580 H   0  0  0  0  0  0  0  0  0  0  0  0
  -41.8885  143.1877   -4.5488 H   0  0  0  0  0  0  0  0  0  0  0  0
  -42.0812  144.2341   -6.7985 H   0  0  0  0  0  0  0  0  0  0  0  0
  -41.1567  148.0877   -5.0980 H   0  0  0  0  0  0  0  0  0  0  0  0
  -40.9594  147.0576   -2.8374 H   0  0  0  0  0  0  0  0  0  0  0  0
  -41.9365  146.0471   -0.0414 H   0  0  0  0  0  0  0  0  0  0  0  0
  -39.3184  148.7191    1.8339 H   0  0  0  0  0  0  0  0  0  0  0  0
  -39.0944  147.3829    3.0356 H   0  0  0  0  0  0  0  0  0  0  0  0
  -37.2187  149.7426    2.5033 H   0  0  0  0  0  0  0  0  0  0  0  0
  -38.1753  149.3854    4.0026 H   0  0  0  0  0  0  0  0  0  0  0  0
  -33.9987  146.8180    7.0682 H   0  0  0  0  0  0  0  0  0  0  0  0
  -35.1104  151.2928    8.3997 H   0  0  0  0  0  0  0  0  0  0  0  0
  -38.7634  153.0364    6.8493 H   0  0  0  0  0  0  0  0  0  0  0  0
  1  2  1  0
  2  3  1  0
  3  4  2  0
  4  5  1  0
  5  6  1  0
  6  7  2  0
  7  8  1  0
  8  9  1  0
  9 10  1  0
 10 11  1  0
 11 12  1  0
 12 13  1  0
 13 14  2  0
 14 15  1  0
 15 16  2  0
 16 17  1  0
 17 18  1  0
 17 19  1  1
 17 20  1  0
 20 21  1  0
 21 22  2  0
 22 23  1  0
 23 24  1  0
 23 25  2  0
 25 26  1  0
 16 27  1  0
 27 28  2  0
 12 29  1  0
 29 30  1  0
  8 31  2  0
 31 32  1  0
 32 33  2  0
 33 34  1  0
 34 35  1  0
  4 36  1  0
 36 37  2  0
 37  2  1  0
 35  5  2  0
 34  7  1  0
 30  9  1  0
 28 13  1  0
 26 20  2  0
  1 38  1  0
  1 39  1  0
  1 40  1  0
  3 41  1  0
  6 42  1  0
 10 43  1  0
 10 44  1  0
 11 45  1  0
 11 46  1  0
 15 47  1  0
 18 48  1  0
 18 49  1  0
 18 50  1  0
 19 51  1  0
 19 52  1  0
 21 53  1  0
 22 54  1  0
 25 55  1  0
 26 56  1  0
 27 57  1  0
 29 58  1  0
 29 59  1  0
 30 60  1  0
 30 61  1  0
 32 62  1  0
 35 63  1  0
 36 64  1  0
M  END
>  <meeko>  (3) 
{"is_sidechain": false}

>  <vina_affinity_kcal_mol>  (3) 
-8.786

>  <pose_rank>  (3) 
3

$$$$

     RDKit          3D

 64 69  0  0  0  0  0  0  0  0999 V2000
  -41.8430  145.2610   -6.7770 C   0  0  0  0  0  0  0  0  0  0  0  0
  -41.5000  145.6140   -5.4200 N   0  0  0  0  0  0  0  0  0  0  0  0
  -41.7410  144.8810   -4.2960 C   0  0  0  0  0  0  0  0  0  0  0  0
  -41.2390  145.6190   -3.2480 C   0  0  0  0  0  0  0  0  0  0  0  0
  -41.2390  145.2880   -1.8310 C   0  0  0  0  0  0  0  0  0  0  0  0
  -40.8580  146.1570   -0.7760 C   0  0  0  0  0  0  0  0  0  0  0  0
  -40.9850  145.4520    0.4100 C   0  0  0  0  0  0  0  0  0  0  0  0
  -40.7680  145.7570    1.8010 C   0  0  0  0  0  0  0  0  0  0  0  0
  -40.2080  146.9220    2.3070 N   0  0  0  0  0  0  0  0  0  0  0  0
  -40.7620  147.5200    3.5390 C   0  0  0  0  0  0  0  0  0  0  0  0
  -39.6650  148.1700    4.4030 C   0  0  0  0  0  0  0  0  0  0  0  0
  -38.8630  149.1120    3.6050 N   0  0  0  0  0  0  0  0  0  0  0  0
  -37.9310  149.8300    4.3600 C   0  0  0  0  0  0  0  0  0  0  0  0
  -36.7010  149.3230    4.5290 N   0  0  0  0  0  0  0  0  0  0  0  0
  -35.8270  150.0240    5.2840 C   0  0  0  0  0  0  0  0  0  0  0  0
  -36.1020  151.2350    5.8880 C   0  0  0  0  0  0  0  0  0  0  0  0
  -35.0780  151.9790    6.7340 C   0  0  1  0  0  0  0  0  0  0  0  0
  -35.2850  151.7830    8.2590 C   0  0  0  0  0  0  0  0  0  0  0  0
  -33.7610  151.3850    6.4570 N   0  0  0  0  0  0  0  0  0  0  0  0
  -35.1170  153.5060    6.4710 C   0  0  0  0  0  0  0  0  0  0  0  0
  -34.3450  154.0490    5.4180 C   0  0  0  0  0  0  0  0  0  0  0  0
  -34.3470  155.4190    5.1480 C   0  0  0  0  0  0  0  0  0  0  0  0
  -35.1210  156.2680    5.9250 C   0  0  0  0  0  0  0  0  0  0  0  0
  -35.1250  157.5820    5.6670 F   0  0  0  0  0  0  0  0  0  0  0  0
  -35.8910  155.7720    6.9680 C   0  0  0  0  0  0  0  0  0  0  0  0
  -35.8900  154.4000    7.2410 C   0  0  0  0  0  0  0  0  0  0  0  0
  -37.3970  151.6540    5.6740 C   0  0  0  0  0  0  0  0  0  0  0  0
  -38.3030  150.9900    4.9220 N   0  0  0  0  0  0  0  0  0  0  0  0
  -38.3030  148.5310    2.3760 C   0  0  0  0  0  0  0  0  0  0  0  0
  -39.3990  147.8590    1.5200 C   0  0  0  0  0  0  0  0  0  0  0  0
  -41.1330  144.8420    2.6580 N   0  0  0  0  0  0  0  0  0  0  0  0
  -41.6410  143.6470    2.2200 C   0  0  0  0  0  0  0  0  0  0  0  0
  -41.8250  143.2810    0.9930 N   0  0  0  0  0  0  0  0  0  0  0  0
  -41.4860  144.2200    0.1000 N   0  0  0  0  0  0  0  0  0  0  0  0
  -41.6140  144.0960   -1.2560 C   0  0  0  0  0  0  0  0  0  0  0  0
  -40.7160  146.7810   -3.8500 C   0  0  0  0  0  0  0  0  0  0  0  0
  -40.8720  146.7810   -5.1790 N   0  0  0  0  0  0  0  0  0  0  0  0
  -42.6095  144.4721   -6.7681 H   0  0  0  0  0  0  0  0  0  0  0  0
  -42.2346  146.1468   -7.2985 H   0  0  0  0  0  0  0  0  0  0  0  0
  -40.9463  144.8950   -7.2985 H   0  0  0  0  0  0  0  0  0  0  0  0
  -42.2356  143.9002   -4.2383 H   0  0  0  0  0  0  0  0  0  0  0  0
  -40.5231  147.1996   -0.8806 H   0  0  0  0  0  0  0  0  0  0  0  0
  -41.4987  148.2884    3.2617 H   0  0  0  0  0  0  0  0  0  0  0  0
  -41.2302  146.7175    4.1279 H   0  0  0  0  0  0  0  0  0  0  0  0
  -40.1358  148.7125    5.2361 H   0  0  0  0  0  0  0  0  0  0  0  0
  -39.0032  147.3798    4.7871 H   0  0  0  0  0  0  0  0  0  0  0  0
  -34.8227  149.5990    5.4282 H   0  0  0  0  0  0  0  0  0  0  0  0
  -34.5937  152.4376    8.8100 H   0  0  0  0  0  0  0  0  0  0  0  0
  -36.3216  152.0384    8.5241 H   0  0  0  0  0  0  0  0  0  0  0  0
  -35.0865  150.7340    8.5241 H   0  0  0  0  0  0  0  0  0  0  0  0
  -33.3510  151.8160    5.6310 H   0  0  0  0  0  0  0  0  0  0  0  0
  -33.8580  150.3890    6.2700 H   0  0  0  0  0  0  0  0  0  0  0  0
  -33.7305  153.3786    4.7991 H   0  0  0  0  0  0  0  0  0  0  0  0
  -33.7389  155.8221    4.3247 H   0  0  0  0  0  0  0  0  0  0  0  0
  -36.5000  156.4555    7.5779 H   0  0  0  0  0  0  0  0  0  0  0  0
  -36.5016  154.0123    8.0690 H   0  0  0  0  0  0  0  0  0  0  0  0
  -37.7157  152.5941    6.1480 H   0  0  0  0  0  0  0  0  0  0  0  0
  -37.8281  149.3294    1.7869 H   0  0  0  0  0  0  0  0  0  0  0  0
  -37.5668  147.7645    2.6597 H   0  0  0  0  0  0  0  0  0  0  0  0
  -40.0570  148.6385    1.1083 H   0  0  0  0  0  0  0  0  0  0  0  0
  -38.9055  147.2927    0.7165 H   0  0  0  0  0  0  0  0  0  0  0  0
  -41.9229  142.9201    2.9960 H   0  0  0  0  0  0  0  0  0  0  0  0
  -41.9570  143.1994   -1.7931 H   0  0  0  0  0  0  0  0  0  0  0  0
  -40.2339  147.5961   -3.2904 H   0  0  0  0  0  0  0  0  0  0  0  0
  1  2  1  0
  2  3  1  0
  3  4  2  0
  4  5  1  0
  5  6  1  0
  6  7  2  0
  7  8  1  0
  8  9  1  0
  9 10  1  0
 10 11  1  0
 11 12  1  0
 12 13  1  0
 13 14  2  0
 14 15  1  0
 15 16  2  0
 16 17  1  0
 17 18  1  0
 17 19  1  6
 17 20  1  0
 20 21  1  0
 21 22  2  0
 22 23  1  0
 23 24  1  0
 23 25  2  0
 25 26  1  0
 16 27  1  0
 27 28  2  0
 12 29  1  0
 29 30  1  0
  8 31  2  0
 31 32  1  0
 32 33  2  0
 33 34  1  0
 34 35  1  0
  4 36  1  0
 36 37  2  0
 37  2  1  0
 35  5  2  0
 34  7  1  0
 30  9  1  0
 28 13  1  0
 26 20  2  0
  1 38  1  0
  1 39  1  0
  1 40  1  0
  3 41  1  0
  6 42  1  0
 10 43  1  0
 10 44  1  0
 11 45  1  0
 11 46  1  0
 15 47  1  0
 18 48  1  0
 18 49  1  0
 18 50  1  0
 19 51  1  0
 19 52  1  0
 21 53  1  0
 22 54  1  0
 25 55  1  0
 26 56  1  0
 27 57  1  0
 29 58  1  0
 29 59  1  0
 30 60  1  0
 30 61  1  0
 32 62  1  0
 35 63  1  0
 36 64  1  0
M  END
>  <meeko>  (4) 
{"is_sidechain": false}

>  <vina_affinity_kcal_mol>  (4) 
-8.727

>  <pose_rank>  (4) 
4

$$$$

     RDKit          3D

 64 69  0  0  0  0  0  0  0  0999 V2000
  -41.2740  144.7220   -3.2890 C   0  0  0  0  0  0  0  0  0  0  0  0
  -41.7610  144.6520   -1.9330 N   0  0  0  0  0  0  0  0  0  0  0  0
  -41.1220  145.0840   -0.8080 C   0  0  0  0  0  0  0  0  0  0  0  0
  -41.9690  144.8050    0.2390 C   0  0  0  0  0  0  0  0  0  0  0  0
  -41.7670  145.0660    1.6560 C   0  0  0  0  0  0  0  0  0  0  0  0
  -41.2840  146.2760    2.2180 C   0  0  0  0  0  0  0  0  0  0  0  0
  -41.2250  146.1040    3.5910 C   0  0  0  0  0  0  0  0  0  0  0  0
  -40.8370  146.9330    4.7030 C   0  0  0  0  0  0  0  0  0  0  0  0
  -40.2610  148.1930    4.6240 N   0  0  0  0  0  0  0  0  0  0  0  0
  -40.6690  149.2420    5.5820 C   0  0  0  0  0  0  0  0  0  0  0  0
  -39.4940  150.1630    5.9570 C   0  0  0  0  0  0  0  0  0  0  0  0
  -38.8410  150.6960    4.7490 N   0  0  0  0  0  0  0  0  0  0  0  0
  -37.8460  151.6390    5.0220 C   0  0  0  0  0  0  0  0  0  0  0  0
  -38.0690  152.9270    4.7210 N   0  0  0  0  0  0  0  0  0  0  0  0
  -37.0810  153.8140    4.9720 C   0  0  0  0  0  0  0  0  0  0  0  0
  -35.8580  153.4950    5.5280 C   0  0  0  0  0  0  0  0  0  0  0  0
  -34.7780  154.5370    5.7830 C   0  0  1  0  0  0  0  0  0  0  0  0
  -34.0590  154.3540    7.1450 C   0  0  0  0  0  0  0  0  0  0  0  0
  -33.7240  154.3360    4.7760 N   0  0  0  0  0  0  0  0  0  0  0  0
  -35.3550  155.9760    5.7720 C   0  0  0  0  0  0  0  0  0  0  0  0
  -35.8190  156.5470    6.9800 C   0  0  0  0  0  0  0  0  0  0  0  0
  -36.3490  157.8380    7.0150 C   0  0  0  0  0  0  0  0  0  0  0  0
  -36.4240  158.5800    5.8460 C   0  0  0  0  0  0  0  0  0  0  0  0
  -36.9320  159.8180    5.8770 F   0  0  0  0  0  0  0  0  0  0  0  0
  -35.9790  158.0520    4.6410 C   0  0  0  0  0  0  0  0  0  0  0  0
  -35.4480  156.7590    4.6030 C   0  0  0  0  0  0  0  0  0  0  0  0
  -35.7210  152.1470    5.7750 C   0  0  0  0  0  0  0  0  0  0  0  0
  -36.6830  151.2240    5.5470 N   0  0  0  0  0  0  0  0  0  0  0  0
  -38.4280  149.6640    3.7870 C   0  0  0  0  0  0  0  0  0  0  0  0
  -39.6000  148.7260    3.4270 C   0  0  0  0  0  0  0  0  0  0  0  0
  -41.0490  146.4410    5.8940 N   0  0  0  0  0  0  0  0  0  0  0  0
  -41.5630  145.1800    6.0400 C   0  0  0  0  0  0  0  0  0  0  0  0
  -41.8940  144.3590    5.0970 N   0  0  0  0  0  0  0  0  0  0  0  0
  -41.7140  144.8590    3.8670 N   0  0  0  0  0  0  0  0  0  0  0  0
  -42.0150  144.2080    2.7030 C   0  0  0  0  0  0  0  0  0  0  0  0
  -43.0940  144.2060   -0.3630 C   0  0  0  0  0  0  0  0  0  0  0  0
  -42.9710  144.1110   -1.6920 N   0  0  0  0  0  0  0  0  0  0  0  0
  -40.1852  144.8785   -3.2799 H   0  0  0  0  0  0  0  0  0  0  0  0
  -41.5049  143.7814   -3.8105 H   0  0  0  0  0  0  0  0  0  0  0  0
  -41.7605  145.5594   -3.8105 H   0  0  0  0  0  0  0  0  0  0  0  0
  -40.1314  145.5587   -0.7500 H   0  0  0  0  0  0  0  0  0  0  0  0
  -41.0069  147.1851    1.6641 H   0  0  0  0  0  0  0  0  0  0  0  0
  -41.4658  149.8489    5.1273 H   0  0  0  0  0  0  0  0  0  0  0  0
  -41.0222  148.7482    6.4993 H   0  0  0  0  0  0  0  0  0  0  0  0
  -39.8712  151.0004    6.5624 H   0  0  0  0  0  0  0  0  0  0  0  0
  -38.7568  149.5793    6.5279 H   0  0  0  0  0  0  0  0  0  0  0  0
  -37.2645  154.8676    4.7145 H   0  0  0  0  0  0  0  0  0  0  0  0
  -34.7716  154.5354    7.9631 H   0  0  0  0  0  0  0  0  0  0  0  0
  -33.6692  153.3280    7.2189 H   0  0  0  0  0  0  0  0  0  0  0  0
  -33.2262  155.0688    7.2189 H   0  0  0  0  0  0  0  0  0  0  0  0
  -33.6200  153.3450    4.5730 H   0  0  0  0  0  0  0  0  0  0  0  0
  -32.8320  154.6750    5.1290 H   0  0  0  0  0  0  0  0  0  0  0  0
  -35.7611  155.9624    7.9100 H   0  0  0  0  0  0  0  0  0  0  0  0
  -36.7051  158.2642    7.9645 H   0  0  0  0  0  0  0  0  0  0  0  0
  -36.0441  158.6491    3.7194 H   0  0  0  0  0  0  0  0  0  0  0  0
  -35.0972  156.3460    3.6457 H   0  0  0  0  0  0  0  0  0  0  0  0
  -34.7628  151.7968    6.1862 H   0  0  0  0  0  0  0  0  0  0  0  0
  -38.0672  150.1535    2.8704 H   0  0  0  0  0  0  0  0  0  0  0  0
  -37.6318  149.0609    4.2478 H   0  0  0  0  0  0  0  0  0  0  0  0
  -40.3366  149.2883    2.8344 H   0  0  0  0  0  0  0  0  0  0  0  0
  -39.1952  147.8783    2.8547 H   0  0  0  0  0  0  0  0  0  0  0  0
  -41.7103  144.8271    7.0714 H   0  0  0  0  0  0  0  0  0  0  0  0
  -42.3902  143.1775    2.6181 H   0  0  0  0  0  0  0  0  0  0  0  0
  -43.9739  143.8561    0.1967 H   0  0  0  0  0  0  0  0  0  0  0  0
  1  2  1  0
  2  3  1  0
  3  4  2  0
  4  5  1  0
  5  6  1  0
  6  7  2  0
  7  8  1  0
  8  9  1  0
  9 10  1  0
 10 11  1  0
 11 12  1  0
 12 13  1  0
 13 14  2  0
 14 15  1  0
 15 16  2  0
 16 17  1  0
 17 18  1  0
 17 19  1  6
 17 20  1  0
 20 21  1  0
 21 22  2  0
 22 23  1  0
 23 24  1  0
 23 25  2  0
 25 26  1  0
 16 27  1  0
 27 28  2  0
 12 29  1  0
 29 30  1  0
  8 31  2  0
 31 32  1  0
 32 33  2  0
 33 34  1  0
 34 35  1  0
  4 36  1  0
 36 37  2  0
 37  2  1  0
 35  5  2  0
 34  7  1  0
 30  9  1  0
 28 13  1  0
 26 20  2  0
  1 38  1  0
  1 39  1  0
  1 40  1  0
  3 41  1  0
  6 42  1  0
 10 43  1  0
 10 44  1  0
 11 45  1  0
 11 46  1  0
 15 47  1  0
 18 48  1  0
 18 49  1  0
 18 50  1  0
 19 51  1  0
 19 52  1  0
 21 53  1  0
 22 54  1  0
 25 55  1  0
 26 56  1  0
 27 57  1  0
 29 58  1  0
 29 59  1  0
 30 60  1  0
 30 61  1  0
 32 62  1  0
 35 63  1  0
 36 64  1  0
M  END
>  <meeko>  (5) 
{"is_sidechain": false}

>  <vina_affinity_kcal_mol>  (5) 
-8.69

>  <pose_rank>  (5) 
5

$$$$

     RDKit          3D

 64 69  0  0  0  0  0  0  0  0999 V2000
  -32.6480  146.6750   10.2020 C   0  0  0  0  0  0  0  0  0  0  0  0
  -33.3620  147.8610    9.7980 N   0  0  0  0  0  0  0  0  0  0  0  0
  -34.1190  148.0210    8.6750 C   0  0  0  0  0  0  0  0  0  0  0  0
  -34.5950  149.3120    8.7200 C   0  0  0  0  0  0  0  0  0  0  0  0
  -35.4540  149.9900    7.7610 C   0  0  0  0  0  0  0  0  0  0  0  0
  -36.3660  149.3620    6.8730 C   0  0  0  0  0  0  0  0  0  0  0  0
  -36.9690  150.3580    6.1240 C   0  0  0  0  0  0  0  0  0  0  0  0
  -37.9650  150.3840    5.0830 C   0  0  0  0  0  0  0  0  0  0  0  0
  -38.5170  149.2800    4.4490 N   0  0  0  0  0  0  0  0  0  0  0  0
  -39.9570  149.2730    4.1200 C   0  0  0  0  0  0  0  0  0  0  0  0
  -40.2390  148.5360    2.7980 C   0  0  0  0  0  0  0  0  0  0  0  0
  -39.6360  147.1920    2.8110 N   0  0  0  0  0  0  0  0  0  0  0  0
  -39.9620  146.4230    1.6900 C   0  0  0  0  0  0  0  0  0  0  0  0
  -38.9760  145.9610    0.9070 N   0  0  0  0  0  0  0  0  0  0  0  0
  -39.3190  145.2420   -0.1830 C   0  0  0  0  0  0  0  0  0  0  0  0
  -40.6150  144.9350   -0.5490 C   0  0  0  0  0  0  0  0  0  0  0  0
  -40.9440  144.1240   -1.7950 C   0  0  1  0  0  0  0  0  0  0  0  0
  -39.7590  143.2550   -2.2910 C   0  0  0  0  0  0  0  0  0  0  0  0
  -41.9880  143.1540   -1.4270 N   0  0  0  0  0  0  0  0  0  0  0  0
  -41.3580  145.0340   -2.9800 C   0  0  0  0  0  0  0  0  0  0  0  0
  -40.7010  146.2720   -3.1660 C   0  0  0  0  0  0  0  0  0  0  0  0
  -41.0440  147.1250   -4.2170 C   0  0  0  0  0  0  0  0  0  0  0  0
  -42.0480  146.7530   -5.0990 C   0  0  0  0  0  0  0  0  0  0  0  0
  -42.3780  147.5690   -6.1080 F   0  0  0  0  0  0  0  0  0  0  0  0
  -42.7150  145.5460   -4.9470 C   0  0  0  0  0  0  0  0  0  0  0  0
  -42.3740  144.6910   -3.8940 C   0  0  0  0  0  0  0  0  0  0  0  0
  -41.5510  145.4770    0.3050 C   0  0  0  0  0  0  0  0  0  0  0  0
  -41.2550  146.1960    1.4100 N   0  0  0  0  0  0  0  0  0  0  0  0
  -38.2020  147.1820    3.1350 C   0  0  0  0  0  0  0  0  0  0  0  0
  -37.9160  147.9410    4.4490 C   0  0  0  0  0  0  0  0  0  0  0  0
  -38.3770  151.5640    4.7050 N   0  0  0  0  0  0  0  0  0  0  0  0
  -37.8320  152.6960    5.2520 C   0  0  0  0  0  0  0  0  0  0  0  0
  -36.9080  152.7580    6.1550 N   0  0  0  0  0  0  0  0  0  0  0  0
  -36.4940  151.5560    6.5780 N   0  0  0  0  0  0  0  0  0  0  0  0
  -35.5520  151.3450    7.5470 C   0  0  0  0  0  0  0  0  0  0  0  0
  -34.0660  149.8450    9.9120 C   0  0  0  0  0  0  0  0  0  0  0  0
  -33.3120  148.9600   10.5760 N   0  0  0  0  0  0  0  0  0  0  0  0
  -32.6163  146.6224   11.3003 H   0  0  0  0  0  0  0  0  0  0  0  0
  -33.1610  145.7858    9.8069 H   0  0  0  0  0  0  0  0  0  0  0  0
  -31.6221  146.7122    9.8069 H   0  0  0  0  0  0  0  0  0  0  0  0
  -34.3102  147.2715    7.8929 H   0  0  0  0  0  0  0  0  0  0  0  0
  -36.5584  148.2818    6.7943 H   0  0  0  0  0  0  0  0  0  0  0  0
  -40.5049  148.7711    4.9311 H   0  0  0  0  0  0  0  0  0  0  0  0
  -40.2863  150.3164    4.0062 H   0  0  0  0  0  0  0  0  0  0  0  0
  -41.3265  148.4423    2.6619 H   0  0  0  0  0  0  0  0  0  0  0  0
  -39.7986  149.1127    1.9713 H   0  0  0  0  0  0  0  0  0  0  0  0
  -38.5067  144.8737   -0.8269 H   0  0  0  0  0  0  0  0  0  0  0  0
  -39.2114  142.8534   -1.4256 H   0  0  0  0  0  0  0  0  0  0  0  0
  -40.1437  142.4234   -2.8996 H   0  0  0  0  0  0  0  0  0  0  0  0
  -39.0814  143.8719   -2.8996 H   0  0  0  0  0  0  0  0  0  0  0  0
  -41.6720  142.2080   -1.6290 H   0  0  0  0  0  0  0  0  0  0  0  0
  -42.8300  143.3220   -1.9730 H   0  0  0  0  0  0  0  0  0  0  0  0
  -39.9037  146.5692   -2.4689 H   0  0  0  0  0  0  0  0  0  0  0  0
  -40.5219  148.0848   -4.3446 H   0  0  0  0  0  0  0  0  0  0  0  0
  -43.5097  145.2623   -5.6526 H   0  0  0  0  0  0  0  0  0  0  0  0
  -42.9073  143.7360   -3.7776 H   0  0  0  0  0  0  0  0  0  0  0  0
  -42.6131  145.3128    0.0707 H   0  0  0  0  0  0  0  0  0  0  0  0
  -37.8668  146.1399    3.2434 H   0  0  0  0  0  0  0  0  0  0  0  0
  -37.6595  147.6838    2.3202 H   0  0  0  0  0  0  0  0  0  0  0  0
  -38.3302  147.3652    5.2898 H   0  0  0  0  0  0  0  0  0  0  0  0
  -36.8264  148.0562    4.5462 H   0  0  0  0  0  0  0  0  0  0  0  0
  -38.2226  153.6559    4.8832 H   0  0  0  0  0  0  0  0  0  0  0  0
  -34.9733  152.1239    8.0652 H   0  0  0  0  0  0  0  0  0  0  0  0
  -34.2515  150.8725   10.2582 H   0  0  0  0  0  0  0  0  0  0  0  0
  1  2  1  0
  2  3  1  0
  3  4  2  0
  4  5  1  0
  5  6  1  0
  6  7  2  0
  7  8  1  0
  8  9  1  0
  9 10  1  0
 10 11  1  0
 11 12  1  0
 12 13  1  0
 13 14  2  0
 14 15  1  0
 15 16  2  0
 16 17  1  0
 17 18  1  0
 17 19  1  1
 17 20  1  0
 20 21  1  0
 21 22  2  0
 22 23  1  0
 23 24  1  0
 23 25  2  0
 25 26  1  0
 16 27  1  0
 27 28  2  0
 12 29  1  0
 29 30  1  0
  8 31  2  0
 31 32  1  0
 32 33  2  0
 33 34  1  0
 34 35  1  0
  4 36  1  0
 36 37  2  0
 37  2  1  0
 35  5  2  0
 34  7  1  0
 30  9  1  0
 28 13  1  0
 26 20  2  0
  1 38  1  0
  1 39  1  0
  1 40  1  0
  3 41  1  0
  6 42  1  0
 10 43  1  0
 10 44  1  0
 11 45  1  0
 11 46  1  0
 15 47  1  0
 18 48  1  0
 18 49  1  0
 18 50  1  0
 19 51  1  0
 19 52  1  0
 21 53  1  0
 22 54  1  0
 25 55  1  0
 26 56  1  0
 27 57  1  0
 29 58  1  0
 29 59  1  0
 30 60  1  0
 30 61  1  0
 32 62  1  0
 35 63  1  0
 36 64  1  0
M  END
>  <meeko>  (6) 
{"is_sidechain": false}

>  <vina_affinity_kcal_mol>  (6) 
-8.458

>  <pose_rank>  (6) 
6

$$$$

     RDKit          3D

 64 69  0  0  0  0  0  0  0  0999 V2000
  -39.5670  159.1520   -0.8910 C   0  0  0  0  0  0  0  0  0  0  0  0
  -39.4470  158.7430    0.4880 N   0  0  0  0  0  0  0  0  0  0  0  0
  -38.3190  158.3140    1.1210 C   0  0  0  0  0  0  0  0  0  0  0  0
  -38.6930  158.0370    2.4160 C   0  0  0  0  0  0  0  0  0  0  0  0
  -37.8660  157.5480    3.5090 C   0  0  0  0  0  0  0  0  0  0  0  0
  -37.6330  156.1860    3.8300 C   0  0  0  0  0  0  0  0  0  0  0  0
  -36.8090  156.1550    4.9420 C   0  0  0  0  0  0  0  0  0  0  0  0
  -36.2150  155.1110    5.7380 C   0  0  0  0  0  0  0  0  0  0  0  0
  -36.4610  153.7500    5.6200 N   0  0  0  0  0  0  0  0  0  0  0  0
  -35.3440  152.7940    5.7640 C   0  0  0  0  0  0  0  0  0  0  0  0
  -35.7940  151.4870    6.4440 C   0  0  0  0  0  0  0  0  0  0  0  0
  -36.9660  150.9190    5.7580 N   0  0  0  0  0  0  0  0  0  0  0  0
  -37.3470  149.6660    6.2480 C   0  0  0  0  0  0  0  0  0  0  0  0
  -38.6510  149.3620    6.3160 N   0  0  0  0  0  0  0  0  0  0  0  0
  -38.9930  148.1550    6.8170 C   0  0  0  0  0  0  0  0  0  0  0  0
  -38.0970  147.2010    7.2570 C   0  0  0  0  0  0  0  0  0  0  0  0
  -38.5400  145.8580    7.8190 C   0  0  1  0  0  0  0  0  0  0  0  0
  -39.4030  145.0340    6.8280 C   0  0  0  0  0  0  0  0  0  0  0  0
  -37.3300  145.0450    8.0250 N   0  0  0  0  0  0  0  0  0  0  0  0
  -39.3800  146.0250    9.1110 C   0  0  0  0  0  0  0  0  0  0  0  0
  -38.8600  146.7860   10.1830 C   0  0  0  0  0  0  0  0  0  0  0  0
  -39.5820  146.9600   11.3660 C   0  0  0  0  0  0  0  0  0  0  0  0
  -40.8330  146.3770   11.4970 C   0  0  0  0  0  0  0  0  0  0  0  0
  -41.5260  146.5420   12.6300 F   0  0  0  0  0  0  0  0  0  0  0  0
  -41.3750  145.6220   10.4660 C   0  0  0  0  0  0  0  0  0  0  0  0
  -40.6550  145.4460    9.2800 C   0  0  0  0  0  0  0  0  0  0  0  0
  -36.7870  147.6220    7.1680 C   0  0  0  0  0  0  0  0  0  0  0  0
  -36.3980  148.8160    6.6680 N   0  0  0  0  0  0  0  0  0  0  0  0
  -38.0870  151.8580    5.6090 C   0  0  0  0  0  0  0  0  0  0  0  0
  -37.6330  153.1770    4.9470 C   0  0  0  0  0  0  0  0  0  0  0  0
  -35.3700  155.4930    6.6570 N   0  0  0  0  0  0  0  0  0  0  0  0
  -35.1260  156.8260    6.8620 C   0  0  0  0  0  0  0  0  0  0  0  0
  -35.6490  157.8220    6.2220 N   0  0  0  0  0  0  0  0  0  0  0  0
  -36.4960  157.4470    5.2540 N   0  0  0  0  0  0  0  0  0  0  0  0
  -37.1550  158.3020    4.4140 C   0  0  0  0  0  0  0  0  0  0  0  0
  -40.0700  158.3330    2.4590 C   0  0  0  0  0  0  0  0  0  0  0  0
  -40.5350  158.7670    1.2820 N   0  0  0  0  0  0  0  0  0  0  0  0
  -39.8764  160.2067   -0.9350 H   0  0  0  0  0  0  0  0  0  0  0  0
  -38.5962  159.0334   -1.3944 H   0  0  0  0  0  0  0  0  0  0  0  0
  -40.3198  158.5276   -1.3944 H   0  0  0  0  0  0  0  0  0  0  0  0
  -37.3142  158.2103    0.6855 H   0  0  0  0  0  0  0  0  0  0  0  0
  -38.0340  155.3136    3.2932 H   0  0  0  0  0  0  0  0  0  0  0  0
  -34.9467  152.5576    4.7659 H   0  0  0  0  0  0  0  0  0  0  0  0
  -34.5738  153.2606    6.3957 H   0  0  0  0  0  0  0  0  0  0  0  0
  -34.9690  150.7602    6.4106 H   0  0  0  0  0  0  0  0  0  0  0  0
  -36.0674  151.7073    7.4865 H   0  0  0  0  0  0  0  0  0  0  0  0
  -40.0646  147.9143    6.8790 H   0  0  0  0  0  0  0  0  0  0  0  0
  -40.0862  144.3816    7.3915 H   0  0  0  0  0  0  0  0  0  0  0  0
  -39.9876  145.7176    6.1948 H   0  0  0  0  0  0  0  0  0  0  0  0
  -38.7472  144.4184    6.1948 H   0  0  0  0  0  0  0  0  0  0  0  0
  -36.4990  145.6180    7.8960 H   0  0  0  0  0  0  0  0  0  0  0  0
  -37.2950  144.2900    7.3430 H   0  0  0  0  0  0  0  0  0  0  0  0
  -37.8676  147.2500   10.0835 H   0  0  0  0  0  0  0  0  0  0  0  0
  -39.1605  147.5561   12.1888 H   0  0  0  0  0  0  0  0  0  0  0  0
  -42.3681  145.1633   10.5815 H   0  0  0  0  0  0  0  0  0  0  0  0
  -41.0898  144.8468    8.4664 H   0  0  0  0  0  0  0  0  0  0  0  0
  -36.0042  146.9387    7.5290 H   0  0  0  0  0  0  0  0  0  0  0  0
  -38.8631  151.3924    4.9838 H   0  0  0  0  0  0  0  0  0  0  0  0
  -38.4794  152.0903    6.6100 H   0  0  0  0  0  0  0  0  0  0  0  0
  -37.3779  152.9782    3.8956 H   0  0  0  0  0  0  0  0  0  0  0  0
  -38.4586  153.8998    5.0239 H   0  0  0  0  0  0  0  0  0  0  0  0
  -34.4078  157.0765    7.6566 H   0  0  0  0  0  0  0  0  0  0  0  0
  -37.1222  159.4008    4.4549 H   0  0  0  0  0  0  0  0  0  0  0  0
  -40.6925  158.2200    3.3589 H   0  0  0  0  0  0  0  0  0  0  0  0
  1  2  1  0
  2  3  1  0
  3  4  2  0
  4  5  1  0
  5  6  1  0
  6  7  2  0
  7  8  1  0
  8  9  1  0
  9 10  1  0
 10 11  1  0
 11 12  1  0
 12 13  1  0
 13 14  2  0
 14 15  1  0
 15 16  2  0
 16 17  1  0
 17 18  1  0
 17 19  1  1
 17 20  1  0
 20 21  1  0
 21 22  2  0
 22 23  1  0
 23 24  1  0
 23 25  2  0
 25 26  1  0
 16 27  1  0
 27 28  2  0
 12 29  1  0
 29 30  1  0
  8 31  2  0
 31 32  1  0
 32 33  2  0
 33 34  1  0
 34 35  1  0
  4 36  1  0
 36 37  2  0
 37  2  1  0
 35  5  2  0
 34  7  1  0
 30  9  1  0
 28 13  1  0
 26 20  2  0
  1 38  1  0
  1 39  1  0
  1 40  1  0
  3 41  1  0
  6 42  1  0
 10 43  1  0
 10 44  1  0
 11 45  1  0
 11 46  1  0
 15 47  1  0
 18 48  1  0
 18 49  1  0
 18 50  1  0
 19 51  1  0
 19 52  1  0
 21 53  1  0
 22 54  1  0
 25 55  1  0
 26 56  1  0
 27 57  1  0
 29 58  1  0
 29 59  1  0
 30 60  1  0
 30 61  1  0
 32 62  1  0
 35 63  1  0
 36 64  1  0
M  END
>  <meeko>  (7) 
{"is_sidechain": false}

>  <vina_affinity_kcal_mol>  (7) 
-8.423

>  <pose_rank>  (7) 
7

$$$$

     RDKit          3D

 64 69  0  0  0  0  0  0  0  0999 V2000
  -39.6260  171.4870  -12.1080 C   0  0  0  0  0  0  0  0  0  0  0  0
  -38.7590  170.4950  -11.5190 N   0  0  0  0  0  0  0  0  0  0  0  0
  -38.7020  169.1680  -11.8280 C   0  0  0  0  0  0  0  0  0  0  0  0
  -37.7340  168.6310  -11.0100 C   0  0  0  0  0  0  0  0  0  0  0  0
  -37.2790  167.2500  -10.9380 C   0  0  0  0  0  0  0  0  0  0  0  0
  -37.6730  166.2950   -9.9660 C   0  0  0  0  0  0  0  0  0  0  0  0
  -37.0010  165.1170  -10.2430 C   0  0  0  0  0  0  0  0  0  0  0  0
  -36.9660  163.8030   -9.6530 C   0  0  0  0  0  0  0  0  0  0  0  0
  -37.5830  163.4210   -8.4700 N   0  0  0  0  0  0  0  0  0  0  0  0
  -38.2230  162.0920   -8.3790 C   0  0  0  0  0  0  0  0  0  0  0  0
  -38.0790  161.4820   -6.9730 C   0  0  0  0  0  0  0  0  0  0  0  0
  -38.5440  162.4270   -5.9430 N   0  0  0  0  0  0  0  0  0  0  0  0
  -38.5570  161.8860   -4.6540 C   0  0  0  0  0  0  0  0  0  0  0  0
  -38.2020  160.6040   -4.4830 N   0  0  0  0  0  0  0  0  0  0  0  0
  -38.2470  160.0980   -3.2310 C   0  0  0  0  0  0  0  0  0  0  0  0
  -38.6220  160.8080   -2.1070 C   0  0  0  0  0  0  0  0  0  0  0  0
  -38.6600  160.1840   -0.7190 C   0  0  1  0  0  0  0  0  0  0  0  0
  -38.2090  158.7000   -0.7020 C   0  0  0  0  0  0  0  0  0  0  0  0
  -37.6640  160.8850    0.1070 N   0  0  0  0  0  0  0  0  0  0  0  0
  -40.0850  160.2260   -0.1100 C   0  0  0  0  0  0  0  0  0  0  0  0
  -40.3610  159.4820    1.0600 C   0  0  0  0  0  0  0  0  0  0  0  0
  -41.6310  159.4880    1.6410 C   0  0  0  0  0  0  0  0  0  0  0  0
  -42.6440  160.2370    1.0620 C   0  0  0  0  0  0  0  0  0  0  0  0
  -43.8630  160.2440    1.6170 F   0  0  0  0  0  0  0  0  0  0  0  0
  -42.4100  160.9790   -0.0870 C   0  0  0  0  0  0  0  0  0  0  0  0
  -41.1400  160.9740   -0.6720 C   0  0  0  0  0  0  0  0  0  0  0  0
  -38.9900  162.1040   -2.3950 C   0  0  0  0  0  0  0  0  0  0  0  0
  -38.9550  162.6540   -3.6300 N   0  0  0  0  0  0  0  0  0  0  0  0
  -37.9140  163.7530   -6.0190 C   0  0  0  0  0  0  0  0  0  0  0  0
  -38.0390  164.3560   -7.4350 C   0  0  0  0  0  0  0  0  0  0  0  0
  -36.2850  162.8960  -10.2980 N   0  0  0  0  0  0  0  0  0  0  0  0
  -35.6070  163.2230  -11.4430 C   0  0  0  0  0  0  0  0  0  0  0  0
  -35.5510  164.3840  -12.0110 N   0  0  0  0  0  0  0  0  0  0  0  0
  -36.2710  165.3210  -11.3800 N   0  0  0  0  0  0  0  0  0  0  0  0
  -36.4050  166.6180  -11.7930 C   0  0  0  0  0  0  0  0  0  0  0  0
  -37.2700  169.7200  -10.2460 C   0  0  0  0  0  0  0  0  0  0  0  0
  -37.8930  170.8620  -10.5550 N   0  0  0  0  0  0  0  0  0  0  0  0
  -40.1248  172.0577  -11.3109 H   0  0  0  0  0  0  0  0  0  0  0  0
  -39.0307  172.1707  -12.7310 H   0  0  0  0  0  0  0  0  0  0  0  0
  -40.3833  170.9886  -12.7310 H   0  0  0  0  0  0  0  0  0  0  0  0
  -39.3060  168.6357  -12.5776 H   0  0  0  0  0  0  0  0  0  0  0  0
  -38.3831  166.4604   -9.1423 H   0  0  0  0  0  0  0  0  0  0  0  0
  -39.2926  162.1952   -8.6143 H   0  0  0  0  0  0  0  0  0  0  0  0
  -37.7230  161.4226   -9.0945 H   0  0  0  0  0  0  0  0  0  0  0  0
  -38.6792  160.5620   -6.9158 H   0  0  0  0  0  0  0  0  0  0  0  0
  -37.0172  161.2581   -6.7927 H   0  0  0  0  0  0  0  0  0  0  0  0
  -37.9643  159.0434   -3.0970 H   0  0  0  0  0  0  0  0  0  0  0  0
  -38.1057  158.3601    0.3390 H   0  0  0  0  0  0  0  0  0  0  0  0
  -38.9601  158.0826   -1.2165 H   0  0  0  0  0  0  0  0  0  0  0  0
  -37.2414  158.6049   -1.2165 H   0  0  0  0  0  0  0  0  0  0  0  0
  -37.8130  161.8900    0.0540 H   0  0  0  0  0  0  0  0  0  0  0  0
  -36.7260  160.6930   -0.2360 H   0  0  0  0  0  0  0  0  0  0  0  0
  -39.5596  158.8866    1.5219 H   0  0  0  0  0  0  0  0  0  0  0  0
  -41.8262  158.9026    2.5516 H   0  0  0  0  0  0  0  0  0  0  0  0
  -43.2217  161.5698   -0.5366 H   0  0  0  0  0  0  0  0  0  0  0  0
  -40.9613  161.5623   -1.5841 H   0  0  0  0  0  0  0  0  0  0  0  0
  -39.3362  162.7349   -1.5631 H   0  0  0  0  0  0  0  0  0  0  0  0
  -38.4054  164.4244   -5.2995 H   0  0  0  0  0  0  0  0  0  0  0  0
  -36.8453  163.6425   -5.7830 H   0  0  0  0  0  0  0  0  0  0  0  0
  -39.0933  164.6077   -7.6226 H   0  0  0  0  0  0  0  0  0  0  0  0
  -37.4031  165.2524   -7.4812 H   0  0  0  0  0  0  0  0  0  0  0  0
  -35.0500  162.4103  -11.9322 H   0  0  0  0  0  0  0  0  0  0  0  0
  -35.9021  167.0760  -12.6575 H   0  0  0  0  0  0  0  0  0  0  0  0
  -36.4835  169.6398   -9.4812 H   0  0  0  0  0  0  0  0  0  0  0  0
  1  2  1  0
  2  3  1  0
  3  4  2  0
  4  5  1  0
  5  6  1  0
  6  7  2  0
  7  8  1  0
  8  9  1  0
  9 10  1  0
 10 11  1  0
 11 12  1  0
 12 13  1  0
 13 14  2  0
 14 15  1  0
 15 16  2  0
 16 17  1  0
 17 18  1  0
 17 19  1  1
 17 20  1  0
 20 21  1  0
 21 22  2  0
 22 23  1  0
 23 24  1  0
 23 25  2  0
 25 26  1  0
 16 27  1  0
 27 28  2  0
 12 29  1  0
 29 30  1  0
  8 31  2  0
 31 32  1  0
 32 33  2  0
 33 34  1  0
 34 35  1  0
  4 36  1  0
 36 37  2  0
 37  2  1  0
 35  5  2  0
 34  7  1  0
 30  9  1  0
 28 13  1  0
 26 20  2  0
  1 38  1  0
  1 39  1  0
  1 40  1  0
  3 41  1  0
  6 42  1  0
 10 43  1  0
 10 44  1  0
 11 45  1  0
 11 46  1  0
 15 47  1  0
 18 48  1  0
 18 49  1  0
 18 50  1  0
 19 51  1  0
 19 52  1  0
 21 53  1  0
 22 54  1  0
 25 55  1  0
 26 56  1  0
 27 57  1  0
 29 58  1  0
 29 59  1  0
 30 60  1  0
 30 61  1  0
 32 62  1  0
 35 63  1  0
 36 64  1  0
M  END
>  <meeko>  (8) 
{"is_sidechain": false}

>  <vina_affinity_kcal_mol>  (8) 
-8.332

>  <pose_rank>  (8) 
8

$$$$

     RDKit          3D

 64 69  0  0  0  0  0  0  0  0999 V2000
  -45.9110  145.4170   11.0870 C   0  0  0  0  0  0  0  0  0  0  0  0
  -45.3470  144.9280    9.8520 N   0  0  0  0  0  0  0  0  0  0  0  0
  -44.4240  145.5530    9.0670 C   0  0  0  0  0  0  0  0  0  0  0  0
  -44.1970  144.7080    8.0050 C   0  0  0  0  0  0  0  0  0  0  0  0
  -43.2970  144.8990    6.8770 C   0  0  0  0  0  0  0  0  0  0  0  0
  -42.1670  145.7560    6.8520 C   0  0  0  0  0  0  0  0  0  0  0  0
  -41.5970  145.6580    5.5930 C   0  0  0  0  0  0  0  0  0  0  0  0
  -40.4550  146.2510    4.9460 C   0  0  0  0  0  0  0  0  0  0  0  0
  -39.6490  147.2540    5.4650 N   0  0  0  0  0  0  0  0  0  0  0  0
  -38.1880  147.2000    5.2470 C   0  0  0  0  0  0  0  0  0  0  0  0
  -37.5820  148.6040    5.0740 C   0  0  0  0  0  0  0  0  0  0  0  0
  -37.9760  149.4840    6.1870 N   0  0  0  0  0  0  0  0  0  0  0  0
  -37.3550  150.7370    6.1550 C   0  0  0  0  0  0  0  0  0  0  0  0
  -36.0660  150.8160    5.7960 N   0  0  0  0  0  0  0  0  0  0  0  0
  -35.4830  152.0350    5.7970 C   0  0  0  0  0  0  0  0  0  0  0  0
  -36.1220  153.2130    6.1290 C   0  0  0  0  0  0  0  0  0  0  0  0
  -35.4130  154.5600    6.1180 C   0  0  1  0  0  0  0  0  0  0  0  0
  -35.1600  155.1310    7.5380 C   0  0  0  0  0  0  0  0  0  0  0  0
  -34.0690  154.3470    5.5580 N   0  0  0  0  0  0  0  0  0  0  0  0
  -36.2250  155.6300    5.3440 C   0  0  0  0  0  0  0  0  0  0  0  0
  -36.1070  156.9910    5.7110 C   0  0  0  0  0  0  0  0  0  0  0  0
  -36.8230  157.9870    5.0430 C   0  0  0  0  0  0  0  0  0  0  0  0
  -37.6660  157.6400    3.9990 C   0  0  0  0  0  0  0  0  0  0  0  0
  -38.3530  158.5930    3.3580 F   0  0  0  0  0  0  0  0  0  0  0  0
  -37.8090  156.3150    3.6120 C   0  0  0  0  0  0  0  0  0  0  0  0
  -37.0940  155.3140    4.2800 C   0  0  0  0  0  0  0  0  0  0  0  0
  -37.4330  153.0190    6.5070 C   0  0  0  0  0  0  0  0  0  0  0  0
  -38.0590  151.8210    6.5150 N   0  0  0  0  0  0  0  0  0  0  0  0
  -39.4260  149.5510    6.4140 C   0  0  0  0  0  0  0  0  0  0  0  0
  -40.0380  148.1410    6.5670 C   0  0  0  0  0  0  0  0  0  0  0  0
  -40.1620  145.7960    3.7580 N   0  0  0  0  0  0  0  0  0  0  0  0
  -40.9520  144.8450    3.1670 C   0  0  0  0  0  0  0  0  0  0  0  0
  -42.0140  144.2970    3.6610 N   0  0  0  0  0  0  0  0  0  0  0  0
  -42.3130  144.7290    4.8930 N   0  0  0  0  0  0  0  0  0  0  0  0
  -43.3640  144.2850    5.6480 C   0  0  0  0  0  0  0  0  0  0  0  0
  -45.0340  143.6000    8.2460 C   0  0  0  0  0  0  0  0  0  0  0  0
  -45.7380  143.7300    9.3760 N   0  0  0  0  0  0  0  0  0  0  0  0
  -45.3837  144.9598   11.9373 H   0  0  0  0  0  0  0  0  0  0  0  0
  -45.8012  146.5106   11.1326 H   0  0  0  0  0  0  0  0  0  0  0  0
  -46.9780  145.1534   11.1326 H   0  0  0  0  0  0  0  0  0  0  0  0
  -43.9564  146.5324    9.2460 H   0  0  0  0  0  0  0  0  0  0  0  0
  -41.8086  146.3839    7.6810 H   0  0  0  0  0  0  0  0  0  0  0  0
  -37.7167  146.7134    6.1137 H   0  0  0  0  0  0  0  0  0  0  0  0
  -38.0016  146.6318    4.3238 H   0  0  0  0  0  0  0  0  0  0  0  0
  -36.4853  148.5229    5.0491 H   0  0  0  0  0  0  0  0  0  0  0  0
  -37.9553  149.0359    4.1337 H   0  0  0  0  0  0  0  0  0  0  0  0
  -34.4220  152.0930    5.5126 H   0  0  0  0  0  0  0  0  0  0  0  0
  -35.4848  154.3980    8.2912 H   0  0  0  0  0  0  0  0  0  0  0  0
  -34.0868  155.3361    7.6649 H   0  0  0  0  0  0  0  0  0  0  0  0
  -35.7291  156.0638    7.6649 H   0  0  0  0  0  0  0  0  0  0  0  0
  -34.1220  153.7280    4.7520 H   0  0  0  0  0  0  0  0  0  0  0  0
  -33.4670  153.9040    6.2490 H   0  0  0  0  0  0  0  0  0  0  0  0
  -35.4384  157.2704    6.5386 H   0  0  0  0  0  0  0  0  0  0  0  0
  -36.7185  159.0400    5.3435 H   0  0  0  0  0  0  0  0  0  0  0  0
  -38.4822  156.0521    2.7827 H   0  0  0  0  0  0  0  0  0  0  0  0
  -37.2120  154.2652    3.9700 H   0  0  0  0  0  0  0  0  0  0  0  0
  -38.0100  153.9002    6.8242 H   0  0  0  0  0  0  0  0  0  0  0  0
  -39.6184  150.1262    7.3316 H   0  0  0  0  0  0  0  0  0  0  0  0
  -39.8906  150.0376    5.5438 H   0  0  0  0  0  0  0  0  0  0  0  0
  -39.6914  147.7037    7.5150 H   0  0  0  0  0  0  0  0  0  0  0  0
  -41.1333  148.2412    6.5540 H   0  0  0  0  0  0  0  0  0  0  0  0
  -40.6499  144.5115    2.1632 H   0  0  0  0  0  0  0  0  0  0  0  0
  -44.1294  143.5627    5.3279 H   0  0  0  0  0  0  0  0  0  0  0  0
  -45.1008  142.7270    7.5801 H   0  0  0  0  0  0  0  0  0  0  0  0
  1  2  1  0
  2  3  1  0
  3  4  2  0
  4  5  1  0
  5  6  1  0
  6  7  2  0
  7  8  1  0
  8  9  1  0
  9 10  1  0
 10 11  1  0
 11 12  1  0
 12 13  1  0
 13 14  2  0
 14 15  1  0
 15 16  2  0
 16 17  1  0
 17 18  1  0
 17 19  1  6
 17 20  1  0
 20 21  1  0
 21 22  2  0
 22 23  1  0
 23 24  1  0
 23 25  2  0
 25 26  1  0
 16 27  1  0
 27 28  2  0
 12 29  1  0
 29 30  1  0
  8 31  2  0
 31 32  1  0
 32 33  2  0
 33 34  1  0
 34 35  1  0
  4 36  1  0
 36 37  2  0
 37  2  1  0
 35  5  2  0
 34  7  1  0
 30  9  1  0
 28 13  1  0
 26 20  2  0
  1 38  1  0
  1 39  1  0
  1 40  1  0
  3 41  1  0
  6 42  1  0
 10 43  1  0
 10 44  1  0
 11 45  1  0
 11 46  1  0
 15 47  1  0
 18 48  1  0
 18 49  1  0
 18 50  1  0
 19 51  1  0
 19 52  1  0
 21 53  1  0
 22 54  1  0
 25 55  1  0
 26 56  1  0
 27 57  1  0
 29 58  1  0
 29 59  1  0
 30 60  1  0
 30 61  1  0
 32 62  1  0
 35 63  1  0
 36 64  1  0
M  END
>  <meeko>  (9) 
{"is_sidechain": false}

>  <vina_affinity_kcal_mol>  (9) 
-8.239

>  <pose_rank>  (9) 
9

$$$$

     RDKit          3D

 64 69  0  0  0  0  0  0  0  0999 V2000
  -41.5040  159.6640    0.7400 C   0  0  0  0  0  0  0  0  0  0  0  0
  -40.2580  159.0850    1.1830 N   0  0  0  0  0  0  0  0  0  0  0  0
  -39.9280  158.7260    2.4560 C   0  0  0  0  0  0  0  0  0  0  0  0
  -38.6480  158.2260    2.3880 C   0  0  0  0  0  0  0  0  0  0  0  0
  -37.8250  157.7030    3.4680 C   0  0  0  0  0  0  0  0  0  0  0  0
  -37.5820  156.3320    3.7390 C   0  0  0  0  0  0  0  0  0  0  0  0
  -36.7670  156.2650    4.8570 C   0  0  0  0  0  0  0  0  0  0  0  0
  -36.1700  155.1970    5.6170 C   0  0  0  0  0  0  0  0  0  0  0  0
  -36.4030  153.8400    5.4450 N   0  0  0  0  0  0  0  0  0  0  0  0
  -35.2790  152.8880    5.5610 C   0  0  0  0  0  0  0  0  0  0  0  0
  -35.7220  151.5530    6.1870 C   0  0  0  0  0  0  0  0  0  0  0  0
  -36.8840  151.0010    5.4700 N   0  0  0  0  0  0  0  0  0  0  0  0
  -37.2570  149.7270    5.9100 C   0  0  0  0  0  0  0  0  0  0  0  0
  -38.5240  149.5170    6.2950 N   0  0  0  0  0  0  0  0  0  0  0  0
  -38.8530  148.2840    6.7390 C   0  0  0  0  0  0  0  0  0  0  0  0
  -37.9810  147.2150    6.8150 C   0  0  0  0  0  0  0  0  0  0  0  0
  -38.4060  145.8470    7.3310 C   0  0  1  0  0  0  0  0  0  0  0  0
  -39.7240  145.8820    8.1470 C   0  0  0  0  0  0  0  0  0  0  0  0
  -38.7150  145.0110    6.1600 N   0  0  0  0  0  0  0  0  0  0  0  0
  -37.3270  145.2200    8.2500 C   0  0  0  0  0  0  0  0  0  0  0  0
  -37.1030  145.7690    9.5340 C   0  0  0  0  0  0  0  0  0  0  0  0
  -36.1390  145.2380   10.3930 C   0  0  0  0  0  0  0  0  0  0  0  0
  -35.3840  144.1490    9.9840 C   0  0  0  0  0  0  0  0  0  0  0  0
  -34.4600  143.6380   10.8070 F   0  0  0  0  0  0  0  0  0  0  0  0
  -35.5750  143.5840    8.7310 C   0  0  0  0  0  0  0  0  0  0  0  0
  -36.5390  144.1150    7.8680 C   0  0  0  0  0  0  0  0  0  0  0  0
  -36.7020  147.5430    6.4210 C   0  0  0  0  0  0  0  0  0  0  0  0
  -36.3290  148.7600    5.9640 N   0  0  0  0  0  0  0  0  0  0  0  0
  -38.0120  151.9350    5.3480 C   0  0  0  0  0  0  0  0  0  0  0  0
  -37.5640  153.2830    4.7410 C   0  0  0  0  0  0  0  0  0  0  0  0
  -35.3350  155.5510    6.5560 N   0  0  0  0  0  0  0  0  0  0  0  0
  -35.1050  156.8770    6.8140 C   0  0  0  0  0  0  0  0  0  0  0  0
  -35.6320  157.8920    6.2090 N   0  0  0  0  0  0  0  0  0  0  0  0
  -36.4680  157.5480    5.2200 N   0  0  0  0  0  0  0  0  0  0  0  0
  -37.1280  158.4280    4.4070 C   0  0  0  0  0  0  0  0  0  0  0  0
  -38.2980  158.3290    1.0270 C   0  0  0  0  0  0  0  0  0  0  0  0
  -39.2810  158.8520    0.2860 N   0  0  0  0  0  0  0  0  0  0  0  0
  -42.1091  159.9452    1.6145 H   0  0  0  0  0  0  0  0  0  0  0  0
  -41.2977  160.5585    0.1340 H   0  0  0  0  0  0  0  0  0  0  0  0
  -42.0547  158.9295    0.1340 H   0  0  0  0  0  0  0  0  0  0  0  0
  -40.5566  158.8174    3.3541 H   0  0  0  0  0  0  0  0  0  0  0  0
  -37.9702  155.4774    3.1655 H   0  0  0  0  0  0  0  0  0  0  0  0
  -34.8726  152.6931    4.5576 H   0  0  0  0  0  0  0  0  0  0  0  0
  -34.5176  153.3365    6.2160 H   0  0  0  0  0  0  0  0  0  0  0  0
  -34.8902  150.8353    6.1328 H   0  0  0  0  0  0  0  0  0  0  0  0
  -36.0054  151.7310    7.2349 H   0  0  0  0  0  0  0  0  0  0  0  0
  -39.8910  148.1192    7.0637 H   0  0  0  0  0  0  0  0  0  0  0  0
  -39.4901  145.8758    9.2218 H   0  0  0  0  0  0  0  0  0  0  0  0
  -40.2846  146.7954    7.8990 H   0  0  0  0  0  0  0  0  0  0  0  0
  -40.3323  144.9997    7.8990 H   0  0  0  0  0  0  0  0  0  0  0  0
  -39.4150  145.4690    5.5800 H   0  0  0  0  0  0  0  0  0  0  0  0
  -39.0980  144.1170    6.4590 H   0  0  0  0  0  0  0  0  0  0  0  0
  -37.7006  146.6321    9.8626 H   0  0  0  0  0  0  0  0  0  0  0  0
  -35.9794  145.6804   11.3874 H   0  0  0  0  0  0  0  0  0  0  0  0
  -34.9698  142.7207    8.4173 H   0  0  0  0  0  0  0  0  0  0  0  0
  -36.6847  143.6634    6.8756 H   0  0  0  0  0  0  0  0  0  0  0  0
  -35.9310  146.7609    6.4824 H   0  0  0  0  0  0  0  0  0  0  0  0
  -38.7788  151.4873    4.6988 H   0  0  0  0  0  0  0  0  0  0  0  0
  -38.4148  152.1249    6.3538 H   0  0  0  0  0  0  0  0  0  0  0  0
  -37.2986  153.1270    3.6849 H   0  0  0  0  0  0  0  0  0  0  0  0
  -38.3966  153.9951    4.8390 H   0  0  0  0  0  0  0  0  0  0  0  0
  -34.3952  157.1030    7.6234 H   0  0  0  0  0  0  0  0  0  0  0  0
  -37.1055  159.5247    4.4895 H   0  0  0  0  0  0  0  0  0  0  0  0
  -37.3257  158.0146    0.6198 H   0  0  0  0  0  0  0  0  0  0  0  0
  1  2  1  0
  2  3  1  0
  3  4  2  0
  4  5  1  0
  5  6  1  0
  6  7  2  0
  7  8  1  0
  8  9  1  0
  9 10  1  0
 10 11  1  0
 11 12  1  0
 12 13  1  0
 13 14  2  0
 14 15  1  0
 15 16  2  0
 16 17  1  0
 17 18  1  0
 17 19  1  6
 17 20  1  0
 20 21  1  0
 21 22  2  0
 22 23  1  0
 23 24  1  0
 23 25  2  0
 25 26  1  0
 16 27  1  0
 27 28  2  0
 12 29  1  0
 29 30  1  0
  8 31  2  0
 31 32  1  0
 32 33  2  0
 33 34  1  0
 34 35  1  0
  4 36  1  0
 36 37  2  0
 37  2  1  0
 35  5  2  0
 34  7  1  0
 30  9  1  0
 28 13  1  0
 26 20  2  0
  1 38  1  0
  1 39  1  0
  1 40  1  0
  3 41  1  0
  6 42  1  0
 10 43  1  0
 10 44  1  0
 11 45  1  0
 11 46  1  0
 15 47  1  0
 18 48  1  0
 18 49  1  0
 18 50  1  0
 19 51  1  0
 19 52  1  0
 21 53  1  0
 22 54  1  0
 25 55  1  0
 26 56  1  0
 27 57  1  0
 29 58  1  0
 29 59  1  0
 30 60  1  0
 30 61  1  0
 32 62  1  0
 35 63  1  0
 36 64  1  0
M  END
>  <meeko>  (10) 
{"is_sidechain": false}

>  <vina_affinity_kcal_mol>  (10) 
-8.171

>  <pose_rank>  (10) 
10

$$$$
