
     RDKit          3D

 54 57  0  0  0  0  0  0  0  0999 V2000
   -4.2429   -0.1408    2.7240 C   0  0  0  0  0  0  0  0  0  0  0  0
   -4.3721   -1.2588    1.6995 C   0  0  0  0  0  0  0  0  0  0  0  0
   -3.4076   -1.1239    0.6092 N   0  0  0  0  0  0  0  0  0  0  0  0
   -2.1767   -1.7667    0.7646 C   0  0  0  0  0  0  0  0  0  0  0  0
   -1.8739   -2.4110    1.7697 O   0  0  0  0  0  0  0  0  0  0  0  0
   -1.1904   -1.6517   -0.3603 C   0  0  0  0  0  0  0  0  0  0  0  0
    0.1016   -2.3601   -0.2862 C   0  0  0  0  0  0  0  0  0  0  0  0
    1.2518   -1.6145    0.0424 C   0  0  0  0  0  0  0  0  0  0  0  0
    2.5002   -2.2319    0.1370 C   0  0  0  0  0  0  0  0  0  0  0  0
    3.6973   -1.5587    0.4646 N   0  0  0  0  0  0  0  0  0  0  0  0
    3.9090   -0.1893    0.4945 C   0  0  0  0  0  0  0  0  0  0  0  0
    3.0903    0.6444    0.1308 O   0  0  0  0  0  0  0  0  0  0  0  0
    5.1747    0.0869    0.9870 N   0  0  0  0  0  0  0  0  0  0  0  0
    5.8064    1.3443    1.0828 C   0  0  0  0  0  0  0  0  0  0  0  0
    7.0318    1.3948    1.7613 C   0  0  0  0  0  0  0  0  0  0  0  0
    7.7262    2.6005    1.8925 C   0  0  0  0  0  0  0  0  0  0  0  0
    7.2038    3.7674    1.3424 C   0  0  0  0  0  0  0  0  0  0  0  0
    5.9901    3.7262    0.6607 C   0  0  0  0  0  0  0  0  0  0  0  0
    5.2950    2.5194    0.5294 C   0  0  0  0  0  0  0  0  0  0  0  0
    2.5820   -3.6115   -0.0807 C   0  0  0  0  0  0  0  0  0  0  0  0
    3.7731   -4.2241    0.0195 F   0  0  0  0  0  0  0  0  0  0  0  0
    1.4643   -4.3679   -0.4127 C   0  0  0  0  0  0  0  0  0  0  0  0
    0.2229   -3.7412   -0.5213 C   0  0  0  0  0  0  0  0  0  0  0  0
   -1.2613   -4.8209   -1.0176 Br  0  0  0  0  0  0  0  0  0  0  0  0
   -1.4676   -0.9089   -1.4417 C   0  0  0  0  0  0  0  0  0  0  0  0
   -2.7366   -0.2033   -1.5419 C   0  0  0  0  0  0  0  0  0  0  0  0
   -3.0364    0.5864   -2.6433 C   0  0  0  0  0  0  0  0  0  0  0  0
   -4.1919    1.2694   -2.7986 N   0  0  0  0  0  0  0  0  0  0  0  0
   -5.1067    1.1851   -1.8169 C   0  0  0  0  0  0  0  0  0  0  0  0
   -6.3382    1.8554   -1.9292 N   0  0  0  0  0  0  0  0  0  0  0  0
   -6.4655    2.6774   -3.1225 C   0  0  0  0  0  0  0  0  0  0  0  0
   -4.8909    0.4013   -0.6825 C   0  0  0  0  0  0  0  0  0  0  0  0
   -3.6927   -0.3068   -0.5316 C   0  0  0  0  0  0  0  0  0  0  0  0
   -3.2386   -0.1225    3.1602 H   0  0  0  0  0  0  0  0  0  0  0  0
   -4.9641   -0.2844    3.5345 H   0  0  0  0  0  0  0  0  0  0  0  0
   -4.4272    0.8394    2.2739 H   0  0  0  0  0  0  0  0  0  0  0  0
   -4.2062   -2.2155    2.2097 H   0  0  0  0  0  0  0  0  0  0  0  0
   -5.3904   -1.3216    1.3032 H   0  0  0  0  0  0  0  0  0  0  0  0
    1.1428   -0.5513    0.2427 H   0  0  0  0  0  0  0  0  0  0  0  0
    4.5209   -2.1455    0.4961 H   0  0  0  0  0  0  0  0  0  0  0  0
    5.6412   -0.6764    1.4524 H   0  0  0  0  0  0  0  0  0  0  0  0
    7.4632    0.4994    2.2004 H   0  0  0  0  0  0  0  0  0  0  0  0
    8.6738    2.6276    2.4240 H   0  0  0  0  0  0  0  0  0  0  0  0
    7.7403    4.7073    1.4426 H   0  0  0  0  0  0  0  0  0  0  0  0
    5.5782    4.6338    0.2264 H   0  0  0  0  0  0  0  0  0  0  0  0
    4.3574    2.5320   -0.0174 H   0  0  0  0  0  0  0  0  0  0  0  0
    1.5778   -5.4338   -0.5832 H   0  0  0  0  0  0  0  0  0  0  0  0
   -0.7626   -0.8157   -2.2624 H   0  0  0  0  0  0  0  0  0  0  0  0
   -2.3357    0.7015   -3.4660 H   0  0  0  0  0  0  0  0  0  0  0  0
   -6.5015    2.3945   -1.0838 H   0  0  0  0  0  0  0  0  0  0  0  0
   -6.3964    2.0752   -4.0350 H   0  0  0  0  0  0  0  0  0  0  0  0
   -5.7131    3.4734   -3.1462 H   0  0  0  0  0  0  0  0  0  0  0  0
   -7.4510    3.1541   -3.1210 H   0  0  0  0  0  0  0  0  0  0  0  0
   -5.6779    0.3611    0.0595 H   0  0  0  0  0  0  0  0  0  0  0  0
  1  2  1  0
  2  3  1  0
  3  4  1  0
  4  5  2  0
  4  6  1  0
  6  7  1  0
  7  8  1  0
  8  9  2  0
  9 10  1  0
 10 11  1  0
 11 12  2  0
 11 13  1  0
 13 14  1  0
 14 15  2  0
 15 16  1  0
 16 17  2  0
 17 18  1  0
 18 19  2  0
  9 20  1  0
 20 21  1  0
 20 22  2  0
 22 23  1  0
 23 24  1  0
  6 25  2  0
 25 26  1  0
 26 27  1  0
 27 28  2  0
 28 29  1  0
 29 30  1  0
 30 31  1  0
 29 32  2  0
 32 33  1  0
 33  3  1  0
 23  7  2  0
 33 26  2  0
 19 14  1  0
  1 34  1  0
  1 35  1  0
  1 36  1  0
  2 37  1  0
  2 38  1  0
  8 39  1  0
 10 40  1  0
 13 41  1  0
 15 42  1  0
 16 43  1  0
 17 44  1  0
 18 45  1  0
 19 46  1  0
 22 47  1  0
 25 48  1  0
 27 49  1  0
 30 50  1  0
 31 51  1  0
 31 52  1  0
 31 53  1  0
 32 54  1  0
M  END
$$$$
