
     RDKit          3D

 54 57  0  0  0  0  0  0  0  0999 V2000
   -6.2650   -0.1050  -13.1660 C   0  0  0  0  0  0  0  0  0  0  0  0
   -6.0810    1.3350  -13.6220 C   0  0  0  0  0  0  0  0  0  0  0  0
   -7.0310    1.7090  -14.6690 N   0  0  0  0  0  0  0  0  0  0  0  0
   -8.2650    2.2190  -14.2560 C   0  0  0  0  0  0  0  0  0  0  0  0
   -8.5810    2.3440  -13.0720 O   0  0  0  0  0  0  0  0  0  0  0  0
   -9.2370    2.6260  -15.3240 C   0  0  0  0  0  0  0  0  0  0  0  0
  -10.5310    3.2310  -14.9550 C   0  0  0  0  0  0  0  0  0  0  0  0
  -11.3840    2.5070  -14.0980 C   0  0  0  0  0  0  0  0  0  0  0  0
  -12.6160    3.0340  -13.7060 C   0  0  0  0  0  0  0  0  0  0  0  0
  -13.5250    2.3770  -12.8480 N   0  0  0  0  0  0  0  0  0  0  0  0
  -13.2320    1.7070  -11.6710 C   0  0  0  0  0  0  0  0  0  0  0  0
  -12.0990    1.5020  -11.2560 O   0  0  0  0  0  0  0  0  0  0  0  0
  -14.4030    1.3060  -11.0460 N   0  0  0  0  0  0  0  0  0  0  0  0
  -14.5330    0.5180   -9.8840 C   0  0  0  0  0  0  0  0  0  0  0  0
  -15.1080    1.1260   -8.7590 C   0  0  0  0  0  0  0  0  0  0  0  0
  -15.2810    0.4120   -7.5720 C   0  0  0  0  0  0  0  0  0  0  0  0
  -14.8860   -0.9210   -7.4980 C   0  0  0  0  0  0  0  0  0  0  0  0
  -14.3200   -1.5360   -8.6110 C   0  0  0  0  0  0  0  0  0  0  0  0
  -14.1470   -0.8200   -9.8010 C   0  0  0  0  0  0  0  0  0  0  0  0
  -12.9780    4.3060  -14.1670 C   0  0  0  0  0  0  0  0  0  0  0  0
  -14.1540    4.8320  -13.7900 F   0  0  0  0  0  0  0  0  0  0  0  0
  -12.1570    5.0360  -15.0190 C   0  0  0  0  0  0  0  0  0  0  0  0
  -10.9340    4.4960  -15.4180 C   0  0  0  0  0  0  0  0  0  0  0  0
   -9.8750    5.5250  -16.6160 Br  0  0  0  0  0  0  0  0  0  0  0  0
   -8.9450    2.4470  -16.6210 C   0  0  0  0  0  0  0  0  0  0  0  0
   -7.6740    1.8550  -17.0120 C   0  0  0  0  0  0  0  0  0  0  0  0
   -7.3600    1.6440  -18.3470 C   0  0  0  0  0  0  0  0  0  0  0  0
   -6.2010    1.0980  -18.7790 N   0  0  0  0  0  0  0  0  0  0  0  0
   -5.2990    0.7280  -17.8530 C   0  0  0  0  0  0  0  0  0  0  0  0
   -4.0660    0.1740  -18.2400 N   0  0  0  0  0  0  0  0  0  0  0  0
   -3.5430   -0.8230  -17.3190 C   0  0  0  0  0  0  0  0  0  0  0  0
   -5.5300    0.9200  -16.4900 C   0  0  0  0  0  0  0  0  0  0  0  0
   -6.7310    1.4900  -16.0520 C   0  0  0  0  0  0  0  0  0  0  0  0
   -6.2699   -0.1437  -12.0667 H   0  0  0  0  0  0  0  0  0  0  0  0
   -7.2199   -0.4923  -13.5508 H   0  0  0  0  0  0  0  0  0  0  0  0
   -5.4381   -0.7200  -13.5508 H   0  0  0  0  0  0  0  0  0  0  0  0
   -6.2252    2.0011  -12.7586 H   0  0  0  0  0  0  0  0  0  0  0  0
   -5.0667    1.4307  -14.0367 H   0  0  0  0  0  0  0  0  0  0  0  0
  -11.0757    1.5158  -13.7340 H   0  0  0  0  0  0  0  0  0  0  0  0
  -14.4460    2.2270  -13.2370 H   0  0  0  0  0  0  0  0  0  0  0  0
  -15.2490    1.7390  -11.3820 H   0  0  0  0  0  0  0  0  0  0  0  0
  -15.4264    2.1776   -8.8124 H   0  0  0  0  0  0  0  0  0  0  0  0
  -15.7293    0.9024   -6.6953 H   0  0  0  0  0  0  0  0  0  0  0  0
  -15.0207   -1.4858   -6.5638 H   0  0  0  0  0  0  0  0  0  0  0  0
  -14.0074   -2.5892   -8.5551 H   0  0  0  0  0  0  0  0  0  0  0  0
  -13.7035   -1.3158  -10.6771 H   0  0  0  0  0  0  0  0  0  0  0  0
  -12.4685    6.0291  -15.3749 H   0  0  0  0  0  0  0  0  0  0  0  0
   -9.6690    2.7488  -17.3922 H   0  0  0  0  0  0  0  0  0  0  0  0
   -8.1022    1.9402  -19.1029 H   0  0  0  0  0  0  0  0  0  0  0  0
   -3.3990    0.9240  -18.3970 H   0  0  0  0  0  0  0  0  0  0  0  0
   -3.7162   -0.4928  -16.2841 H   0  0  0  0  0  0  0  0  0  0  0  0
   -4.0540   -1.7823  -17.4882 H   0  0  0  0  0  0  0  0  0  0  0  0
   -2.4633   -0.9479  -17.4882 H   0  0  0  0  0  0  0  0  0  0  0  0
   -4.7654    0.6223  -15.7573 H   0  0  0  0  0  0  0  0  0  0  0  0
  1  2  1  0
  2  3  1  0
  3  4  1  0
  4  5  2  0
  4  6  1  0
  6  7  1  0
  7  8  1  0
  8  9  2  0
  9 10  1  0
 10 11  1  0
 11 12  2  0
 11 13  1  0
 13 14  1  0
 14 15  2  0
 15 16  1  0
 16 17  2  0
 17 18  1  0
 18 19  2  0
  9 20  1  0
 20 21  1  0
 20 22  2  0
 22 23  1  0
 23 24  1  0
  6 25  2  0
 25 26  1  0
 26 27  2  0
 27 28  1  0
 28 29  2  0
 29 30  1  0
 30 31  1  0
 29 32  1  0
 32 33  2  0
 33  3  1  0
 23  7  2  0
 33 26  1  0
 19 14  1  0
  1 34  1  0
  1 35  1  0
  1 36  1  0
  2 37  1  0
  2 38  1  0
  8 39  1  0
 10 40  1  0
 13 41  1  0
 15 42  1  0
 16 43  1  0
 17 44  1  0
 18 45  1  0
 19 46  1  0
 22 47  1  0
 25 48  1  0
 27 49  1  0
 30 50  1  0
 31 51  1  0
 31 52  1  0
 31 53  1  0
 32 54  1  0
M  END
>  <meeko>  (1) 
{"is_sidechain": false}

>  <vina_affinity_kcal_mol>  (1) 
-9.459

>  <pose_rank>  (1) 
1

$$$$

     RDKit          3D

 54 57  0  0  0  0  0  0  0  0999 V2000
  -12.7310   -5.2660   -9.7960 C   0  0  0  0  0  0  0  0  0  0  0  0
  -13.3710   -4.2540  -10.7340 C   0  0  0  0  0  0  0  0  0  0  0  0
  -12.8030   -2.9160  -10.5760 N   0  0  0  0  0  0  0  0  0  0  0  0
  -11.6700   -2.6120  -11.3340 C   0  0  0  0  0  0  0  0  0  0  0  0
  -11.1330   -3.4150  -12.0980 O   0  0  0  0  0  0  0  0  0  0  0  0
  -11.0940   -1.2330  -11.1940 C   0  0  0  0  0  0  0  0  0  0  0  0
   -9.9370   -0.8270  -12.0150 C   0  0  0  0  0  0  0  0  0  0  0  0
  -10.1750   -0.0310  -13.1530 C   0  0  0  0  0  0  0  0  0  0  0  0
   -9.1180    0.3920  -13.9610 C   0  0  0  0  0  0  0  0  0  0  0  0
   -9.2700    1.1940  -15.1130 N   0  0  0  0  0  0  0  0  0  0  0  0
   -9.1990    2.5770  -15.1890 C   0  0  0  0  0  0  0  0  0  0  0  0
   -9.0900    3.3160  -14.2210 O   0  0  0  0  0  0  0  0  0  0  0  0
   -9.2720    2.9860  -16.5110 N   0  0  0  0  0  0  0  0  0  0  0  0
   -9.3310    4.3060  -17.0020 C   0  0  0  0  0  0  0  0  0  0  0  0
   -8.3970    4.6680  -17.9820 C   0  0  0  0  0  0  0  0  0  0  0  0
   -8.3940    5.9540  -18.5260 C   0  0  0  0  0  0  0  0  0  0  0  0
   -9.3300    6.8920  -18.1000 C   0  0  0  0  0  0  0  0  0  0  0  0
  -10.2670    6.5410  -17.1310 C   0  0  0  0  0  0  0  0  0  0  0  0
  -10.2700    5.2520  -16.5860 C   0  0  0  0  0  0  0  0  0  0  0  0
   -7.8150    0.0250  -13.6060 C   0  0  0  0  0  0  0  0  0  0  0  0
   -6.7860    0.4340  -14.3650 F   0  0  0  0  0  0  0  0  0  0  0  0
   -7.5550   -0.7650  -12.4920 C   0  0  0  0  0  0  0  0  0  0  0  0
   -8.6180   -1.1970  -11.6980 C   0  0  0  0  0  0  0  0  0  0  0  0
   -8.2030   -2.3090  -10.2130 Br  0  0  0  0  0  0  0  0  0  0  0  0
  -11.6210   -0.3550  -10.3270 C   0  0  0  0  0  0  0  0  0  0  0  0
  -12.7640   -0.7290   -9.5070 C   0  0  0  0  0  0  0  0  0  0  0  0
  -13.3120    0.1570   -8.5910 C   0  0  0  0  0  0  0  0  0  0  0  0
  -14.3700   -0.1250   -7.7990 N   0  0  0  0  0  0  0  0  0  0  0  0
  -14.9220   -1.3470   -7.9000 C   0  0  0  0  0  0  0  0  0  0  0  0
  -16.0380   -1.6950   -7.1190 N   0  0  0  0  0  0  0  0  0  0  0  0
  -16.8270   -0.5600   -6.6670 C   0  0  0  0  0  0  0  0  0  0  0  0
  -14.4400   -2.2930   -8.8080 C   0  0  0  0  0  0  0  0  0  0  0  0
  -13.3470   -1.9900   -9.6280 C   0  0  0  0  0  0  0  0  0  0  0  0
  -12.9186   -4.9694   -8.7535 H   0  0  0  0  0  0  0  0  0  0  0  0
  -13.1649   -6.2603   -9.9781 H   0  0  0  0  0  0  0  0  0  0  0  0
  -11.6467   -5.3002   -9.9781 H   0  0  0  0  0  0  0  0  0  0  0  0
  -13.2146   -4.5847  -11.7714 H   0  0  0  0  0  0  0  0  0  0  0  0
  -14.4417   -4.1968  -10.4883 H   0  0  0  0  0  0  0  0  0  0  0  0
  -11.2047    0.2603  -13.4075 H   0  0  0  0  0  0  0  0  0  0  0  0
   -9.6540    0.7160  -15.9180 H   0  0  0  0  0  0  0  0  0  0  0  0
   -9.1300    2.2660  -17.2020 H   0  0  0  0  0  0  0  0  0  0  0  0
   -7.6574    3.9303  -18.3268 H   0  0  0  0  0  0  0  0  0  0  0  0
   -7.6520    6.2258  -19.2912 H   0  0  0  0  0  0  0  0  0  0  0  0
   -9.3297    7.9059  -18.5267 H   0  0  0  0  0  0  0  0  0  0  0  0
  -11.0079    7.2803  -16.7926 H   0  0  0  0  0  0  0  0  0  0  0  0
  -11.0170    4.9823  -15.8249 H   0  0  0  0  0  0  0  0  0  0  0  0
   -6.5221   -1.0466  -12.2391 H   0  0  0  0  0  0  0  0  0  0  0  0
  -11.1874    0.6518  -10.2355 H   0  0  0  0  0  0  0  0  0  0  0  0
  -12.8556    1.1540   -8.5036 H   0  0  0  0  0  0  0  0  0  0  0  0
  -15.7320   -2.2720   -6.3410 H   0  0  0  0  0  0  0  0  0  0  0  0
  -16.8419   -0.5385   -5.5673 H   0  0  0  0  0  0  0  0  0  0  0  0
  -16.3805    0.3711   -7.0459 H   0  0  0  0  0  0  0  0  0  0  0  0
  -17.8554   -0.6542   -7.0459 H   0  0  0  0  0  0  0  0  0  0  0  0
  -14.9213   -3.2796   -8.8787 H   0  0  0  0  0  0  0  0  0  0  0  0
  1  2  1  0
  2  3  1  0
  3  4  1  0
  4  5  2  0
  4  6  1  0
  6  7  1  0
  7  8  1  0
  8  9  2  0
  9 10  1  0
 10 11  1  0
 11 12  2  0
 11 13  1  0
 13 14  1  0
 14 15  2  0
 15 16  1  0
 16 17  2  0
 17 18  1  0
 18 19  2  0
  9 20  1  0
 20 21  1  0
 20 22  2  0
 22 23  1  0
 23 24  1  0
  6 25  2  0
 25 26  1  0
 26 27  2  0
 27 28  1  0
 28 29  2  0
 29 30  1  0
 30 31  1  0
 29 32  1  0
 32 33  2  0
 33  3  1  0
 23  7  2  0
 33 26  1  0
 19 14  1  0
  1 34  1  0
  1 35  1  0
  1 36  1  0
  2 37  1  0
  2 38  1  0
  8 39  1  0
 10 40  1  0
 13 41  1  0
 15 42  1  0
 16 43  1  0
 17 44  1  0
 18 45  1  0
 19 46  1  0
 22 47  1  0
 25 48  1  0
 27 49  1  0
 30 50  1  0
 31 51  1  0
 31 52  1  0
 31 53  1  0
 32 54  1  0
M  END
>  <meeko>  (2) 
{"is_sidechain": false}

>  <vina_affinity_kcal_mol>  (2) 
-9.294

>  <pose_rank>  (2) 
2

$$$$

     RDKit          3D

 54 57  0  0  0  0  0  0  0  0999 V2000
   -4.5710    0.1790  -17.9510 C   0  0  0  0  0  0  0  0  0  0  0  0
   -5.5260   -0.8040  -17.2900 C   0  0  0  0  0  0  0  0  0  0  0  0
   -5.9980   -0.3280  -15.9900 N   0  0  0  0  0  0  0  0  0  0  0  0
   -7.1640    0.4430  -15.9810 C   0  0  0  0  0  0  0  0  0  0  0  0
   -7.7820    0.7450  -17.0020 O   0  0  0  0  0  0  0  0  0  0  0  0
   -7.6680    0.9160  -14.6490 C   0  0  0  0  0  0  0  0  0  0  0  0
   -8.9280    1.6800  -14.5630 C   0  0  0  0  0  0  0  0  0  0  0  0
   -9.0110    2.9060  -15.2540 C   0  0  0  0  0  0  0  0  0  0  0  0
  -10.1810    3.6660  -15.2180 C   0  0  0  0  0  0  0  0  0  0  0  0
  -10.3480    4.8990  -15.8850 N   0  0  0  0  0  0  0  0  0  0  0  0
   -9.9410    5.2200  -17.1710 C   0  0  0  0  0  0  0  0  0  0  0  0
   -9.2720    4.4870  -17.8860 O   0  0  0  0  0  0  0  0  0  0  0  0
  -10.3970    6.4830  -17.5140 N   0  0  0  0  0  0  0  0  0  0  0  0
  -10.1170    7.2100  -18.6890 C   0  0  0  0  0  0  0  0  0  0  0  0
   -9.5290    8.4730  -18.5370 C   0  0  0  0  0  0  0  0  0  0  0  0
   -9.2120    9.2520  -19.6510 C   0  0  0  0  0  0  0  0  0  0  0  0
   -9.4740    8.7750  -20.9320 C   0  0  0  0  0  0  0  0  0  0  0  0
  -10.0520    7.5180  -21.0950 C   0  0  0  0  0  0  0  0  0  0  0  0
  -10.3700    6.7370  -19.9780 C   0  0  0  0  0  0  0  0  0  0  0  0
  -11.2760    3.1760  -14.4980 C   0  0  0  0  0  0  0  0  0  0  0  0
  -12.4140    3.8890  -14.4640 F   0  0  0  0  0  0  0  0  0  0  0  0
  -11.2160    1.9740  -13.8030 C   0  0  0  0  0  0  0  0  0  0  0  0
  -10.0390    1.2270  -13.8310 C   0  0  0  0  0  0  0  0  0  0  0  0
  -10.0050   -0.3880  -12.8270 Br  0  0  0  0  0  0  0  0  0  0  0  0
   -6.9850    0.6530  -13.5250 C   0  0  0  0  0  0  0  0  0  0  0  0
   -5.7410   -0.1010  -13.5800 C   0  0  0  0  0  0  0  0  0  0  0  0
   -5.0100   -0.3670  -12.4320 C   0  0  0  0  0  0  0  0  0  0  0  0
   -3.8480   -1.0590  -12.4130 N   0  0  0  0  0  0  0  0  0  0  0  0
   -3.3670   -1.5090  -13.5850 C   0  0  0  0  0  0  0  0  0  0  0  0
   -2.1740   -2.2520  -13.6290 N   0  0  0  0  0  0  0  0  0  0  0  0
   -1.8250   -2.7450  -14.9520 C   0  0  0  0  0  0  0  0  0  0  0  0
   -4.0490   -1.2970  -14.7850 C   0  0  0  0  0  0  0  0  0  0  0  0
   -5.2530   -0.5840  -14.7940 C   0  0  0  0  0  0  0  0  0  0  0  0
   -4.0269    0.7390  -17.1762 H   0  0  0  0  0  0  0  0  0  0  0  0
   -3.8536   -0.3715  -18.5773 H   0  0  0  0  0  0  0  0  0  0  0  0
   -5.1420    0.8802  -18.5773 H   0  0  0  0  0  0  0  0  0  0  0  0
   -6.3940   -0.9521  -17.9493 H   0  0  0  0  0  0  0  0  0  0  0  0
   -4.9812   -1.7456  -17.1269 H   0  0  0  0  0  0  0  0  0  0  0  0
   -8.1446    3.2673  -15.8275 H   0  0  0  0  0  0  0  0  0  0  0  0
  -10.6220    5.6710  -15.2910 H   0  0  0  0  0  0  0  0  0  0  0  0
  -11.1160    6.8670  -16.9200 H   0  0  0  0  0  0  0  0  0  0  0  0
   -9.3148    8.8549  -17.5279 H   0  0  0  0  0  0  0  0  0  0  0  0
   -8.7549   10.2434  -19.5164 H   0  0  0  0  0  0  0  0  0  0  0  0
   -9.2259    9.3875  -21.8114 H   0  0  0  0  0  0  0  0  0  0  0  0
  -10.2594    7.1376  -22.1061 H   0  0  0  0  0  0  0  0  0  0  0  0
  -10.8223    5.7439  -20.1166 H   0  0  0  0  0  0  0  0  0  0  0  0
  -12.0882    1.6156  -13.2366 H   0  0  0  0  0  0  0  0  0  0  0  0
   -7.3668    1.0089  -12.5567 H   0  0  0  0  0  0  0  0  0  0  0  0
   -5.4004    0.0091  -11.4749 H   0  0  0  0  0  0  0  0  0  0  0  0
   -2.2280   -3.0070  -12.9510 H   0  0  0  0  0  0  0  0  0  0  0  0
   -1.1919   -3.6393  -14.8548 H   0  0  0  0  0  0  0  0  0  0  0  0
   -2.7426   -3.0032  -15.5009 H   0  0  0  0  0  0  0  0  0  0  0  0
   -1.2765   -1.9654  -15.5009 H   0  0  0  0  0  0  0  0  0  0  0  0
   -3.6385   -1.6917  -15.7261 H   0  0  0  0  0  0  0  0  0  0  0  0
  1  2  1  0
  2  3  1  0
  3  4  1  0
  4  5  2  0
  4  6  1  0
  6  7  1  0
  7  8  1  0
  8  9  2  0
  9 10  1  0
 10 11  1  0
 11 12  2  0
 11 13  1  0
 13 14  1  0
 14 15  2  0
 15 16  1  0
 16 17  2  0
 17 18  1  0
 18 19  2  0
  9 20  1  0
 20 21  1  0
 20 22  2  0
 22 23  1  0
 23 24  1  0
  6 25  2  0
 25 26  1  0
 26 27  2  0
 27 28  1  0
 28 29  2  0
 29 30  1  0
 30 31  1  0
 29 32  1  0
 32 33  2  0
 33  3  1  0
 23  7  2  0
 33 26  1  0
 19 14  1  0
  1 34  1  0
  1 35  1  0
  1 36  1  0
  2 37  1  0
  2 38  1  0
  8 39  1  0
 10 40  1  0
 13 41  1  0
 15 42  1  0
 16 43  1  0
 17 44  1  0
 18 45  1  0
 19 46  1  0
 22 47  1  0
 25 48  1  0
 27 49  1  0
 30 50  1  0
 31 51  1  0
 31 52  1  0
 31 53  1  0
 32 54  1  0
M  END
>  <meeko>  (3) 
{"is_sidechain": false}

>  <vina_affinity_kcal_mol>  (3) 
-9.152

>  <pose_rank>  (3) 
3

$$$$

     RDKit          3D

 54 57  0  0  0  0  0  0  0  0999 V2000
   -7.1270    0.0320  -15.2360 C   0  0  0  0  0  0  0  0  0  0  0  0
   -8.4570    0.1860  -15.9590 C   0  0  0  0  0  0  0  0  0  0  0  0
   -9.3010    1.2130  -15.3510 N   0  0  0  0  0  0  0  0  0  0  0  0
  -10.1600    0.8060  -14.3260 C   0  0  0  0  0  0  0  0  0  0  0  0
  -10.2450   -0.3600  -13.9390 O   0  0  0  0  0  0  0  0  0  0  0  0
  -11.0140    1.8590  -13.6810 C   0  0  0  0  0  0  0  0  0  0  0  0
  -11.8950    1.5070  -12.5520 C   0  0  0  0  0  0  0  0  0  0  0  0
  -11.4960    0.4600  -11.6970 C   0  0  0  0  0  0  0  0  0  0  0  0
  -12.2830    0.0900  -10.6060 C   0  0  0  0  0  0  0  0  0  0  0  0
  -11.9530   -0.9420   -9.7010 N   0  0  0  0  0  0  0  0  0  0  0  0
  -12.3410   -2.2720   -9.7660 C   0  0  0  0  0  0  0  0  0  0  0  0
  -13.1280   -2.7220  -10.5880 O   0  0  0  0  0  0  0  0  0  0  0  0
  -11.7120   -3.0020   -8.7700 N   0  0  0  0  0  0  0  0  0  0  0  0
  -11.9110   -4.3580   -8.4390 C   0  0  0  0  0  0  0  0  0  0  0  0
  -13.0160   -4.6650   -7.6340 C   0  0  0  0  0  0  0  0  0  0  0  0
  -13.2890   -5.9850   -7.2690 C   0  0  0  0  0  0  0  0  0  0  0  0
  -12.4630   -7.0140   -7.7100 C   0  0  0  0  0  0  0  0  0  0  0  0
  -11.3660   -6.7200   -8.5160 C   0  0  0  0  0  0  0  0  0  0  0  0
  -11.0920   -5.3980   -8.8820 C   0  0  0  0  0  0  0  0  0  0  0  0
  -13.4690    0.7940  -10.3660 C   0  0  0  0  0  0  0  0  0  0  0  0
  -14.2310    0.4600   -9.3140 F   0  0  0  0  0  0  0  0  0  0  0  0
  -13.8870    1.8260  -11.1990 C   0  0  0  0  0  0  0  0  0  0  0  0
  -13.1030    2.1800  -12.2960 C   0  0  0  0  0  0  0  0  0  0  0  0
  -13.7490    3.5710  -13.4200 Br  0  0  0  0  0  0  0  0  0  0  0  0
  -10.9870    3.1260  -14.1200 C   0  0  0  0  0  0  0  0  0  0  0  0
  -10.1240    3.5010  -15.2310 C   0  0  0  0  0  0  0  0  0  0  0  0
  -10.0960    4.8010  -15.7130 C   0  0  0  0  0  0  0  0  0  0  0  0
   -9.3210    5.2160  -16.7400 N   0  0  0  0  0  0  0  0  0  0  0  0
   -8.5340    4.3050  -17.3390 C   0  0  0  0  0  0  0  0  0  0  0  0
   -7.6900    4.6790  -18.4000 N   0  0  0  0  0  0  0  0  0  0  0  0
   -8.1470    5.8390  -19.1480 C   0  0  0  0  0  0  0  0  0  0  0  0
   -8.4920    2.9790  -16.9070 C   0  0  0  0  0  0  0  0  0  0  0  0
   -9.2940    2.5600  -15.8390 C   0  0  0  0  0  0  0  0  0  0  0  0
   -7.2960    0.0516  -14.1492 H   0  0  0  0  0  0  0  0  0  0  0  0
   -6.6651   -0.9256  -15.5180 H   0  0  0  0  0  0  0  0  0  0  0  0
   -6.4585    0.8587  -15.5180 H   0  0  0  0  0  0  0  0  0  0  0  0
   -8.2612    0.4624  -17.0056 H   0  0  0  0  0  0  0  0  0  0  0  0
   -8.9910   -0.7733  -15.8911 H   0  0  0  0  0  0  0  0  0  0  0  0
  -10.5530   -0.0717  -11.8922 H   0  0  0  0  0  0  0  0  0  0  0  0
  -11.5520   -0.6310   -8.8260 H   0  0  0  0  0  0  0  0  0  0  0  0
  -10.9290   -2.5500   -8.3230 H   0  0  0  0  0  0  0  0  0  0  0  0
  -13.6760   -3.8570   -7.2855 H   0  0  0  0  0  0  0  0  0  0  0  0
  -14.1573   -6.2112   -6.6327 H   0  0  0  0  0  0  0  0  0  0  0  0
  -12.6753   -8.0546   -7.4235 H   0  0  0  0  0  0  0  0  0  0  0  0
  -10.7116   -7.5316   -8.8667 H   0  0  0  0  0  0  0  0  0  0  0  0
  -10.2258   -5.1766   -9.5229 H   0  0  0  0  0  0  0  0  0  0  0  0
  -14.8277    2.3582  -10.9942 H   0  0  0  0  0  0  0  0  0  0  0  0
  -11.6201    3.8857  -13.6382 H   0  0  0  0  0  0  0  0  0  0  0  0
  -10.7471    5.5431  -15.2279 H   0  0  0  0  0  0  0  0  0  0  0  0
   -7.5430    3.8770  -19.0050 H   0  0  0  0  0  0  0  0  0  0  0  0
   -8.4578    6.6279  -18.4473 H   0  0  0  0  0  0  0  0  0  0  0  0
   -7.3288    6.2125  -19.7813 H   0  0  0  0  0  0  0  0  0  0  0  0
   -9.0001    5.5541  -19.7813 H   0  0  0  0  0  0  0  0  0  0  0  0
   -7.8263    2.2603  -17.4074 H   0  0  0  0  0  0  0  0  0  0  0  0
  1  2  1  0
  2  3  1  0
  3  4  1  0
  4  5  2  0
  4  6  1  0
  6  7  1  0
  7  8  1  0
  8  9  2  0
  9 10  1  0
 10 11  1  0
 11 12  2  0
 11 13  1  0
 13 14  1  0
 14 15  2  0
 15 16  1  0
 16 17  2  0
 17 18  1  0
 18 19  2  0
  9 20  1  0
 20 21  1  0
 20 22  2  0
 22 23  1  0
 23 24  1  0
  6 25  2  0
 25 26  1  0
 26 27  2  0
 27 28  1  0
 28 29  2  0
 29 30  1  0
 30 31  1  0
 29 32  1  0
 32 33  2  0
 33  3  1  0
 23  7  2  0
 33 26  1  0
 19 14  1  0
  1 34  1  0
  1 35  1  0
  1 36  1  0
  2 37  1  0
  2 38  1  0
  8 39  1  0
 10 40  1  0
 13 41  1  0
 15 42  1  0
 16 43  1  0
 17 44  1  0
 18 45  1  0
 19 46  1  0
 22 47  1  0
 25 48  1  0
 27 49  1  0
 30 50  1  0
 31 51  1  0
 31 52  1  0
 31 53  1  0
 32 54  1  0
M  END
>  <meeko>  (4) 
{"is_sidechain": false}

>  <vina_affinity_kcal_mol>  (4) 
-8.957

>  <pose_rank>  (4) 
4

$$$$

     RDKit          3D

 54 57  0  0  0  0  0  0  0  0999 V2000
   -2.9390    0.7560  -18.1390 C   0  0  0  0  0  0  0  0  0  0  0  0
   -3.1000    0.6930  -16.6280 C   0  0  0  0  0  0  0  0  0  0  0  0
   -4.3610    0.0680  -16.2310 N   0  0  0  0  0  0  0  0  0  0  0  0
   -5.4170    0.9220  -15.8990 C   0  0  0  0  0  0  0  0  0  0  0  0
   -5.3220    2.1500  -15.9080 O   0  0  0  0  0  0  0  0  0  0  0  0
   -6.7220    0.2880  -15.5120 C   0  0  0  0  0  0  0  0  0  0  0  0
   -7.8940    1.1330  -15.2120 C   0  0  0  0  0  0  0  0  0  0  0  0
   -8.3440    2.0240  -16.2060 C   0  0  0  0  0  0  0  0  0  0  0  0
   -9.4540    2.8400  -15.9830 C   0  0  0  0  0  0  0  0  0  0  0  0
   -9.9710    3.7550  -16.9260 N   0  0  0  0  0  0  0  0  0  0  0  0
   -9.3690    4.9150  -17.3880 C   0  0  0  0  0  0  0  0  0  0  0  0
   -8.3190    5.3680  -16.9530 O   0  0  0  0  0  0  0  0  0  0  0  0
  -10.1290    5.4750  -18.4030 N   0  0  0  0  0  0  0  0  0  0  0  0
   -9.9130    6.7010  -19.0640 C   0  0  0  0  0  0  0  0  0  0  0  0
  -10.1960    6.7480  -20.4360 C   0  0  0  0  0  0  0  0  0  0  0  0
  -10.0170    7.9270  -21.1630 C   0  0  0  0  0  0  0  0  0  0  0  0
   -9.5580    9.0750  -20.5240 C   0  0  0  0  0  0  0  0  0  0  0  0
   -9.2800    9.0420  -19.1600 C   0  0  0  0  0  0  0  0  0  0  0  0
   -9.4590    7.8610  -18.4320 C   0  0  0  0  0  0  0  0  0  0  0  0
  -10.1230    2.7400  -14.7580 C   0  0  0  0  0  0  0  0  0  0  0  0
  -11.2010    3.5090  -14.5320 F   0  0  0  0  0  0  0  0  0  0  0  0
   -9.6940    1.8740  -13.7590 C   0  0  0  0  0  0  0  0  0  0  0  0
   -8.5750    1.0720  -13.9830 C   0  0  0  0  0  0  0  0  0  0  0  0
   -8.0140   -0.0620  -12.5640 Br  0  0  0  0  0  0  0  0  0  0  0  0
   -6.8400   -1.0460  -15.4360 C   0  0  0  0  0  0  0  0  0  0  0  0
   -5.7000   -1.9020  -15.7300 C   0  0  0  0  0  0  0  0  0  0  0  0
   -5.7950   -3.2830  -15.6380 C   0  0  0  0  0  0  0  0  0  0  0  0
   -4.7780   -4.1350  -15.8950 N   0  0  0  0  0  0  0  0  0  0  0  0
   -3.5940   -3.6080  -16.2540 C   0  0  0  0  0  0  0  0  0  0  0  0
   -2.5020   -4.4420  -16.5540 N   0  0  0  0  0  0  0  0  0  0  0  0
   -1.3690   -3.7520  -17.1500 C   0  0  0  0  0  0  0  0  0  0  0  0
   -3.4170   -2.2290  -16.3840 C   0  0  0  0  0  0  0  0  0  0  0  0
   -4.4780   -1.3540  -16.1210 C   0  0  0  0  0  0  0  0  0  0  0  0
   -1.9407    1.1467  -18.3854 H   0  0  0  0  0  0  0  0  0  0  0  0
   -3.0527   -0.2529  -18.5622 H   0  0  0  0  0  0  0  0  0  0  0  0
   -3.7072    1.4198  -18.5622 H   0  0  0  0  0  0  0  0  0  0  0  0
   -2.2678    0.1094  -16.2074 H   0  0  0  0  0  0  0  0  0  0  0  0
   -3.1000    1.7245  -16.2458 H   0  0  0  0  0  0  0  0  0  0  0  0
   -7.8146    2.0772  -17.1687 H   0  0  0  0  0  0  0  0  0  0  0  0
  -10.9540    3.6410  -17.1360 H   0  0  0  0  0  0  0  0  0  0  0  0
  -10.8350    4.8780  -18.8040 H   0  0  0  0  0  0  0  0  0  0  0  0
  -10.5635    5.8455  -20.9463 H   0  0  0  0  0  0  0  0  0  0  0  0
  -10.2387    7.9482  -22.2402 H   0  0  0  0  0  0  0  0  0  0  0  0
   -9.4154   10.0048  -21.0942 H   0  0  0  0  0  0  0  0  0  0  0  0
   -8.9181    9.9485  -18.6528 H   0  0  0  0  0  0  0  0  0  0  0  0
   -9.2406    7.8457  -17.3540 H   0  0  0  0  0  0  0  0  0  0  0  0
  -10.2318    1.8216  -12.8009 H   0  0  0  0  0  0  0  0  0  0  0  0
   -7.8026   -1.4951  -15.1502 H   0  0  0  0  0  0  0  0  0  0  0  0
   -6.7615   -3.7127  -15.3361 H   0  0  0  0  0  0  0  0  0  0  0  0
   -2.8220   -5.2090  -17.1370 H   0  0  0  0  0  0  0  0  0  0  0  0
   -0.7203   -3.3570  -16.3543 H   0  0  0  0  0  0  0  0  0  0  0  0
   -0.7977   -4.4557  -17.7733 H   0  0  0  0  0  0  0  0  0  0  0  0
   -1.7320   -2.9215  -17.7733 H   0  0  0  0  0  0  0  0  0  0  0  0
   -2.4405   -1.8287  -16.6941 H   0  0  0  0  0  0  0  0  0  0  0  0
  1  2  1  0
  2  3  1  0
  3  4  1  0
  4  5  2  0
  4  6  1  0
  6  7  1  0
  7  8  1  0
  8  9  2  0
  9 10  1  0
 10 11  1  0
 11 12  2  0
 11 13  1  0
 13 14  1  0
 14 15  2  0
 15 16  1  0
 16 17  2  0
 17 18  1  0
 18 19  2  0
  9 20  1  0
 20 21  1  0
 20 22  2  0
 22 23  1  0
 23 24  1  0
  6 25  2  0
 25 26  1  0
 26 27  2  0
 27 28  1  0
 28 29  2  0
 29 30  1  0
 30 31  1  0
 29 32  1  0
 32 33  2  0
 33  3  1  0
 23  7  2  0
 33 26  1  0
 19 14  1  0
  1 34  1  0
  1 35  1  0
  1 36  1  0
  2 37  1  0
  2 38  1  0
  8 39  1  0
 10 40  1  0
 13 41  1  0
 15 42  1  0
 16 43  1  0
 17 44  1  0
 18 45  1  0
 19 46  1  0
 22 47  1  0
 25 48  1  0
 27 49  1  0
 30 50  1  0
 31 51  1  0
 31 52  1  0
 31 53  1  0
 32 54  1  0
M  END
>  <meeko>  (5) 
{"is_sidechain": false}

>  <vina_affinity_kcal_mol>  (5) 
-8.675

>  <pose_rank>  (5) 
5

$$$$

     RDKit          3D

 54 57  0  0  0  0  0  0  0  0999 V2000
  -12.1860   -0.1560   -5.3470 C   0  0  0  0  0  0  0  0  0  0  0  0
  -12.9980    0.5540   -6.4210 C   0  0  0  0  0  0  0  0  0  0  0  0
  -13.0960   -0.2310   -7.6500 N   0  0  0  0  0  0  0  0  0  0  0  0
  -12.0860   -0.0540   -8.6000 C   0  0  0  0  0  0  0  0  0  0  0  0
  -11.1510    0.7340   -8.4530 O   0  0  0  0  0  0  0  0  0  0  0  0
  -12.1670   -0.8720   -9.8560 C   0  0  0  0  0  0  0  0  0  0  0  0
  -11.0990   -0.7790  -10.8700 C   0  0  0  0  0  0  0  0  0  0  0  0
  -11.3010    0.0740  -11.9730 C   0  0  0  0  0  0  0  0  0  0  0  0
  -10.3210    0.2100  -12.9580 C   0  0  0  0  0  0  0  0  0  0  0  0
  -10.4430    1.0460  -14.0890 N   0  0  0  0  0  0  0  0  0  0  0  0
   -9.9530    2.3350  -14.2370 C   0  0  0  0  0  0  0  0  0  0  0  0
   -9.4190    2.9770  -13.3430 O   0  0  0  0  0  0  0  0  0  0  0  0
  -10.1610    2.7780  -15.5340 N   0  0  0  0  0  0  0  0  0  0  0  0
   -9.8960    4.0590  -16.0590 C   0  0  0  0  0  0  0  0  0  0  0  0
   -8.6920    4.2300  -16.7560 C   0  0  0  0  0  0  0  0  0  0  0  0
   -8.3590    5.4660  -17.3140 C   0  0  0  0  0  0  0  0  0  0  0  0
   -9.2290    6.5440  -17.1870 C   0  0  0  0  0  0  0  0  0  0  0  0
  -10.4310    6.3840  -16.5020 C   0  0  0  0  0  0  0  0  0  0  0  0
  -10.7650    5.1460  -15.9430 C   0  0  0  0  0  0  0  0  0  0  0  0
   -9.1260   -0.5040  -12.8170 C   0  0  0  0  0  0  0  0  0  0  0  0
   -8.1690   -0.3750  -13.7490 F   0  0  0  0  0  0  0  0  0  0  0  0
   -8.9070   -1.3580  -11.7420 C   0  0  0  0  0  0  0  0  0  0  0  0
   -9.8960   -1.5000  -10.7700 C   0  0  0  0  0  0  0  0  0  0  0  0
   -9.5530   -2.7130   -9.3460 Br  0  0  0  0  0  0  0  0  0  0  0  0
  -13.2050   -1.6940  -10.0720 C   0  0  0  0  0  0  0  0  0  0  0  0
  -14.2700   -1.8070   -9.0860 C   0  0  0  0  0  0  0  0  0  0  0  0
  -15.3610   -2.6370   -9.2990 C   0  0  0  0  0  0  0  0  0  0  0  0
  -16.3850   -2.7870   -8.4280 N   0  0  0  0  0  0  0  0  0  0  0  0
  -16.3450   -2.0780   -7.2870 C   0  0  0  0  0  0  0  0  0  0  0  0
  -17.3690   -2.2060   -6.3310 N   0  0  0  0  0  0  0  0  0  0  0  0
  -18.6350   -1.6100   -6.7270 C   0  0  0  0  0  0  0  0  0  0  0  0
  -15.2760   -1.2310   -6.9890 C   0  0  0  0  0  0  0  0  0  0  0  0
  -14.2180   -1.0860   -7.8940 C   0  0  0  0  0  0  0  0  0  0  0  0
  -12.5413    0.1546   -4.3534 H   0  0  0  0  0  0  0  0  0  0  0  0
  -12.3062   -1.2440   -5.4557 H   0  0  0  0  0  0  0  0  0  0  0  0
  -11.1238    0.1083   -5.4557 H   0  0  0  0  0  0  0  0  0  0  0  0
  -14.0120    0.7363   -6.0356 H   0  0  0  0  0  0  0  0  0  0  0  0
  -12.4855    1.4968   -6.6631 H   0  0  0  0  0  0  0  0  0  0  0  0
  -12.2409    0.6389  -12.0590 H   0  0  0  0  0  0  0  0  0  0  0  0
  -11.1150    0.7360  -14.7790 H   0  0  0  0  0  0  0  0  0  0  0  0
  -10.4000    2.0670  -16.2080 H   0  0  0  0  0  0  0  0  0  0  0  0
   -8.0014    3.3807  -16.8647 H   0  0  0  0  0  0  0  0  0  0  0  0
   -7.4084    5.5872  -17.8541 H   0  0  0  0  0  0  0  0  0  0  0  0
   -8.9687    7.5186  -17.6257 H   0  0  0  0  0  0  0  0  0  0  0  0
  -11.1207    7.2348  -16.4001 H   0  0  0  0  0  0  0  0  0  0  0  0
  -11.7190    5.0278  -15.4082 H   0  0  0  0  0  0  0  0  0  0  0  0
   -7.9627   -1.9161  -11.6593 H   0  0  0  0  0  0  0  0  0  0  0  0
  -13.2516   -2.2853  -10.9984 H   0  0  0  0  0  0  0  0  0  0  0  0
  -15.3956   -3.2104  -10.2371 H   0  0  0  0  0  0  0  0  0  0  0  0
  -17.0430   -1.8370   -5.4430 H   0  0  0  0  0  0  0  0  0  0  0  0
  -19.2097   -1.3394   -5.8289 H   0  0  0  0  0  0  0  0  0  0  0  0
  -18.4439   -0.7073   -7.3258 H   0  0  0  0  0  0  0  0  0  0  0  0
  -19.2090   -2.3325   -7.3258 H   0  0  0  0  0  0  0  0  0  0  0  0
  -15.2651   -0.6756   -6.0396 H   0  0  0  0  0  0  0  0  0  0  0  0
  1  2  1  0
  2  3  1  0
  3  4  1  0
  4  5  2  0
  4  6  1  0
  6  7  1  0
  7  8  1  0
  8  9  2  0
  9 10  1  0
 10 11  1  0
 11 12  2  0
 11 13  1  0
 13 14  1  0
 14 15  2  0
 15 16  1  0
 16 17  2  0
 17 18  1  0
 18 19  2  0
  9 20  1  0
 20 21  1  0
 20 22  2  0
 22 23  1  0
 23 24  1  0
  6 25  2  0
 25 26  1  0
 26 27  2  0
 27 28  1  0
 28 29  2  0
 29 30  1  0
 30 31  1  0
 29 32  1  0
 32 33  2  0
 33  3  1  0
 23  7  2  0
 33 26  1  0
 19 14  1  0
  1 34  1  0
  1 35  1  0
  1 36  1  0
  2 37  1  0
  2 38  1  0
  8 39  1  0
 10 40  1  0
 13 41  1  0
 15 42  1  0
 16 43  1  0
 17 44  1  0
 18 45  1  0
 19 46  1  0
 22 47  1  0
 25 48  1  0
 27 49  1  0
 30 50  1  0
 31 51  1  0
 31 52  1  0
 31 53  1  0
 32 54  1  0
M  END
>  <meeko>  (6) 
{"is_sidechain": false}

>  <vina_affinity_kcal_mol>  (6) 
-8.594

>  <pose_rank>  (6) 
6

$$$$

     RDKit          3D

 54 57  0  0  0  0  0  0  0  0999 V2000
   -4.6100   -1.8200  -13.9610 C   0  0  0  0  0  0  0  0  0  0  0  0
   -4.7990   -0.3150  -13.8350 C   0  0  0  0  0  0  0  0  0  0  0  0
   -6.0790    0.1300  -14.3850 N   0  0  0  0  0  0  0  0  0  0  0  0
   -7.1800    0.1170  -13.5250 C   0  0  0  0  0  0  0  0  0  0  0  0
   -7.1190   -0.2630  -12.3550 O   0  0  0  0  0  0  0  0  0  0  0  0
   -8.4920    0.5940  -14.0760 C   0  0  0  0  0  0  0  0  0  0  0  0
   -9.6790    0.6660  -13.2020 C   0  0  0  0  0  0  0  0  0  0  0  0
   -9.9680   -0.4410  -12.3800 C   0  0  0  0  0  0  0  0  0  0  0  0
  -11.0720   -0.4250  -11.5250 C   0  0  0  0  0  0  0  0  0  0  0  0
  -11.4270   -1.4880  -10.6670 N   0  0  0  0  0  0  0  0  0  0  0  0
  -11.4220   -2.8430  -10.9620 C   0  0  0  0  0  0  0  0  0  0  0  0
  -11.1970   -3.3070  -12.0710 O   0  0  0  0  0  0  0  0  0  0  0  0
  -11.7100   -3.5800   -9.8240 N   0  0  0  0  0  0  0  0  0  0  0  0
  -11.8940   -4.9740   -9.7250 C   0  0  0  0  0  0  0  0  0  0  0  0
  -10.8620   -5.7160   -9.1330 C   0  0  0  0  0  0  0  0  0  0  0  0
  -10.9700   -7.1010   -8.9890 C   0  0  0  0  0  0  0  0  0  0  0  0
  -12.1140   -7.7600   -9.4300 C   0  0  0  0  0  0  0  0  0  0  0  0
  -13.1480   -7.0310  -10.0130 C   0  0  0  0  0  0  0  0  0  0  0  0
  -13.0400   -5.6440  -10.1570 C   0  0  0  0  0  0  0  0  0  0  0  0
  -11.8730    0.7220  -11.4870 C   0  0  0  0  0  0  0  0  0  0  0  0
  -12.9310    0.7580  -10.6610 F   0  0  0  0  0  0  0  0  0  0  0  0
  -11.6130    1.8230  -12.2940 C   0  0  0  0  0  0  0  0  0  0  0  0
  -10.5170    1.7940  -13.1570 C   0  0  0  0  0  0  0  0  0  0  0  0
  -10.2370    3.3140  -14.2640 Br  0  0  0  0  0  0  0  0  0  0  0  0
   -8.6040    0.9580  -15.3620 C   0  0  0  0  0  0  0  0  0  0  0  0
   -7.4480    0.9000  -16.2450 C   0  0  0  0  0  0  0  0  0  0  0  0
   -7.5460    1.2540  -17.5830 C   0  0  0  0  0  0  0  0  0  0  0  0
   -6.5150    1.2210  -18.4570 N   0  0  0  0  0  0  0  0  0  0  0  0
   -5.3190    0.8080  -18.0000 C   0  0  0  0  0  0  0  0  0  0  0  0
   -4.2030    0.7720  -18.8540 N   0  0  0  0  0  0  0  0  0  0  0  0
   -3.2360   -0.2660  -18.5310 C   0  0  0  0  0  0  0  0  0  0  0  0
   -5.1320    0.4480  -16.6640 C   0  0  0  0  0  0  0  0  0  0  0  0
   -6.2040    0.4910  -15.7660 C   0  0  0  0  0  0  0  0  0  0  0  0
   -4.5538   -2.2677  -12.9578 H   0  0  0  0  0  0  0  0  0  0  0  0
   -5.4610   -2.2519  -14.5081 H   0  0  0  0  0  0  0  0  0  0  0  0
   -3.6787   -2.0281  -14.5081 H   0  0  0  0  0  0  0  0  0  0  0  0
   -4.7565   -0.0407  -12.7706 H   0  0  0  0  0  0  0  0  0  0  0  0
   -3.9974    0.1747  -14.4075 H   0  0  0  0  0  0  0  0  0  0  0  0
   -9.3172   -1.3273  -12.4120 H   0  0  0  0  0  0  0  0  0  0  0  0
  -11.9100   -1.2120   -9.8220 H   0  0  0  0  0  0  0  0  0  0  0  0
  -11.6470   -3.0820   -8.9500 H   0  0  0  0  0  0  0  0  0  0  0  0
   -9.9570   -5.2014   -8.7779 H   0  0  0  0  0  0  0  0  0  0  0  0
  -10.1507   -7.6713   -8.5269 H   0  0  0  0  0  0  0  0  0  0  0  0
  -12.2011   -8.8509   -9.3187 H   0  0  0  0  0  0  0  0  0  0  0  0
  -14.0538   -7.5487  -10.3618 H   0  0  0  0  0  0  0  0  0  0  0  0
  -13.8642   -5.0768  -10.6141 H   0  0  0  0  0  0  0  0  0  0  0  0
  -12.2646    2.7083  -12.2529 H   0  0  0  0  0  0  0  0  0  0  0  0
   -9.5736    1.3019  -15.7513 H   0  0  0  0  0  0  0  0  0  0  0  0
   -8.5267    1.5830  -17.9571 H   0  0  0  0  0  0  0  0  0  0  0  0
   -3.7720    1.6910  -18.8770 H   0  0  0  0  0  0  0  0  0  0  0  0
   -3.1492   -0.3591  -17.4384 H   0  0  0  0  0  0  0  0  0  0  0  0
   -3.5710   -1.2240  -18.9552 H   0  0  0  0  0  0  0  0  0  0  0  0
   -2.2567    0.0004  -18.9552 H   0  0  0  0  0  0  0  0  0  0  0  0
   -4.1382    0.1294  -16.3162 H   0  0  0  0  0  0  0  0  0  0  0  0
  1  2  1  0
  2  3  1  0
  3  4  1  0
  4  5  2  0
  4  6  1  0
  6  7  1  0
  7  8  1  0
  8  9  2  0
  9 10  1  0
 10 11  1  0
 11 12  2  0
 11 13  1  0
 13 14  1  0
 14 15  2  0
 15 16  1  0
 16 17  2  0
 17 18  1  0
 18 19  2  0
  9 20  1  0
 20 21  1  0
 20 22  2  0
 22 23  1  0
 23 24  1  0
  6 25  2  0
 25 26  1  0
 26 27  2  0
 27 28  1  0
 28 29  2  0
 29 30  1  0
 30 31  1  0
 29 32  1  0
 32 33  2  0
 33  3  1  0
 23  7  2  0
 33 26  1  0
 19 14  1  0
  1 34  1  0
  1 35  1  0
  1 36  1  0
  2 37  1  0
  2 38  1  0
  8 39  1  0
 10 40  1  0
 13 41  1  0
 15 42  1  0
 16 43  1  0
 17 44  1  0
 18 45  1  0
 19 46  1  0
 22 47  1  0
 25 48  1  0
 27 49  1  0
 30 50  1  0
 31 51  1  0
 31 52  1  0
 31 53  1  0
 32 54  1  0
M  END
>  <meeko>  (7) 
{"is_sidechain": false}

>  <vina_affinity_kcal_mol>  (7) 
-8.592

>  <pose_rank>  (7) 
7

$$$$

     RDKit          3D

 54 57  0  0  0  0  0  0  0  0999 V2000
   -5.1760   -1.6560  -11.9060 C   0  0  0  0  0  0  0  0  0  0  0  0
   -4.7980   -0.3390  -12.5670 C   0  0  0  0  0  0  0  0  0  0  0  0
   -5.5860   -0.0780  -13.7710 N   0  0  0  0  0  0  0  0  0  0  0  0
   -6.7880    0.6150  -13.6070 C   0  0  0  0  0  0  0  0  0  0  0  0
   -7.2080    0.9880  -12.5110 O   0  0  0  0  0  0  0  0  0  0  0  0
   -7.5920    0.9060  -14.8400 C   0  0  0  0  0  0  0  0  0  0  0  0
   -8.8380    1.6900  -14.7440 C   0  0  0  0  0  0  0  0  0  0  0  0
   -8.8860    2.9460  -15.3800 C   0  0  0  0  0  0  0  0  0  0  0  0
  -10.0410    3.7270  -15.3310 C   0  0  0  0  0  0  0  0  0  0  0  0
  -10.1720    4.9920  -15.9450 N   0  0  0  0  0  0  0  0  0  0  0  0
   -9.8530    5.3280  -17.2520 C   0  0  0  0  0  0  0  0  0  0  0  0
   -9.3030    4.5740  -18.0440 O   0  0  0  0  0  0  0  0  0  0  0  0
  -10.2420    6.6320  -17.5180 N   0  0  0  0  0  0  0  0  0  0  0  0
  -10.0100    7.3770  -18.6920 C   0  0  0  0  0  0  0  0  0  0  0  0
  -10.4480    6.8200  -19.9010 C   0  0  0  0  0  0  0  0  0  0  0  0
  -10.2650    7.4990  -21.1080 C   0  0  0  0  0  0  0  0  0  0  0  0
   -9.6450    8.7450  -21.1180 C   0  0  0  0  0  0  0  0  0  0  0  0
   -9.2110    9.3100  -19.9220 C   0  0  0  0  0  0  0  0  0  0  0  0
   -9.3950    8.6300  -18.7130 C   0  0  0  0  0  0  0  0  0  0  0  0
  -11.1590    3.2270  -14.6540 C   0  0  0  0  0  0  0  0  0  0  0  0
  -12.2830    3.9600  -14.6090 F   0  0  0  0  0  0  0  0  0  0  0  0
  -11.1350    1.9950  -14.0120 C   0  0  0  0  0  0  0  0  0  0  0  0
   -9.9720    1.2270  -14.0520 C   0  0  0  0  0  0  0  0  0  0  0  0
   -9.9870   -0.4310  -13.1220 Br  0  0  0  0  0  0  0  0  0  0  0  0
   -7.1900    0.4620  -16.0410 C   0  0  0  0  0  0  0  0  0  0  0  0
   -5.9620   -0.3100  -16.1650 C   0  0  0  0  0  0  0  0  0  0  0  0
   -5.5390   -0.7960  -17.3930 C   0  0  0  0  0  0  0  0  0  0  0  0
   -4.4130   -1.5200  -17.5790 N   0  0  0  0  0  0  0  0  0  0  0  0
   -3.6590   -1.7950  -16.5000 C   0  0  0  0  0  0  0  0  0  0  0  0
   -2.4650   -2.5260  -16.6300 N   0  0  0  0  0  0  0  0  0  0  0  0
   -1.6130   -2.0880  -17.7240 C   0  0  0  0  0  0  0  0  0  0  0  0
   -4.0060   -1.3320  -15.2290 C   0  0  0  0  0  0  0  0  0  0  0  0
   -5.1720   -0.5780  -15.0480 C   0  0  0  0  0  0  0  0  0  0  0  0
   -5.1428   -1.5403  -10.8126 H   0  0  0  0  0  0  0  0  0  0  0  0
   -6.1926   -1.9422  -12.2137 H   0  0  0  0  0  0  0  0  0  0  0  0
   -4.4660   -2.4378  -12.2137 H   0  0  0  0  0  0  0  0  0  0  0  0
   -4.9659    0.4781  -11.8499 H   0  0  0  0  0  0  0  0  0  0  0  0
   -3.7404   -0.4015  -12.8630 H   0  0  0  0  0  0  0  0  0  0  0  0
   -8.0026    3.3153  -15.9215 H   0  0  0  0  0  0  0  0  0  0  0  0
  -10.3380    5.7600  -15.3080 H   0  0  0  0  0  0  0  0  0  0  0  0
  -10.8770    7.0440  -16.8530 H   0  0  0  0  0  0  0  0  0  0  0  0
  -10.9415    5.8369  -19.8995 H   0  0  0  0  0  0  0  0  0  0  0  0
  -10.6108    7.0490  -22.0503 H   0  0  0  0  0  0  0  0  0  0  0  0
   -9.4985    9.2812  -22.0672 H   0  0  0  0  0  0  0  0  0  0  0  0
   -8.7214   10.2950  -19.9274 H   0  0  0  0  0  0  0  0  0  0  0  0
   -9.0526    9.0861  -17.7724 H   0  0  0  0  0  0  0  0  0  0  0  0
  -12.0243    1.6294  -13.4777 H   0  0  0  0  0  0  0  0  0  0  0  0
   -7.7910    0.6824  -16.9356 H   0  0  0  0  0  0  0  0  0  0  0  0
   -6.1609   -0.5779  -18.2737 H   0  0  0  0  0  0  0  0  0  0  0  0
   -2.6870   -3.5140  -16.7000 H   0  0  0  0  0  0  0  0  0  0  0  0
   -0.7043   -1.6208  -17.3166 H   0  0  0  0  0  0  0  0  0  0  0  0
   -1.3345   -2.9547  -18.3415 H   0  0  0  0  0  0  0  0  0  0  0  0
   -2.1558   -1.3571  -18.3415 H   0  0  0  0  0  0  0  0  0  0  0  0
   -3.3614   -1.5603  -14.3674 H   0  0  0  0  0  0  0  0  0  0  0  0
  1  2  1  0
  2  3  1  0
  3  4  1  0
  4  5  2  0
  4  6  1  0
  6  7  1  0
  7  8  1  0
  8  9  2  0
  9 10  1  0
 10 11  1  0
 11 12  2  0
 11 13  1  0
 13 14  1  0
 14 15  2  0
 15 16  1  0
 16 17  2  0
 17 18  1  0
 18 19  2  0
  9 20  1  0
 20 21  1  0
 20 22  2  0
 22 23  1  0
 23 24  1  0
  6 25  2  0
 25 26  1  0
 26 27  2  0
 27 28  1  0
 28 29  2  0
 29 30  1  0
 30 31  1  0
 29 32  1  0
 32 33  2  0
 33  3  1  0
 23  7  2  0
 33 26  1  0
 19 14  1  0
  1 34  1  0
  1 35  1  0
  1 36  1  0
  2 37  1  0
  2 38  1  0
  8 39  1  0
 10 40  1  0
 13 41  1  0
 15 42  1  0
 16 43  1  0
 17 44  1  0
 18 45  1  0
 19 46  1  0
 22 47  1  0
 25 48  1  0
 27 49  1  0
 30 50  1  0
 31 51  1  0
 31 52  1  0
 31 53  1  0
 32 54  1  0
M  END
>  <meeko>  (8) 
{"is_sidechain": false}

>  <vina_affinity_kcal_mol>  (8) 
-8.503

>  <pose_rank>  (8) 
8

$$$$

     RDKit          3D

 54 57  0  0  0  0  0  0  0  0999 V2000
  -12.6840    4.4220  -15.0770 C   0  0  0  0  0  0  0  0  0  0  0  0
  -11.5250    5.3880  -15.2750 C   0  0  0  0  0  0  0  0  0  0  0  0
  -10.3480    4.7310  -15.8410 N   0  0  0  0  0  0  0  0  0  0  0  0
   -9.7470    3.7300  -15.0730 C   0  0  0  0  0  0  0  0  0  0  0  0
  -10.1500    3.4020  -13.9560 O   0  0  0  0  0  0  0  0  0  0  0  0
   -8.5510    3.0350  -15.6560 C   0  0  0  0  0  0  0  0  0  0  0  0
   -7.9100    1.9270  -14.9240 C   0  0  0  0  0  0  0  0  0  0  0  0
   -8.6460    1.2860  -13.9080 C   0  0  0  0  0  0  0  0  0  0  0  0
   -8.0950    0.2240  -13.1890 C   0  0  0  0  0  0  0  0  0  0  0  0
   -8.7670   -0.4740  -12.1610 N   0  0  0  0  0  0  0  0  0  0  0  0
  -10.0200   -1.0640  -12.2270 C   0  0  0  0  0  0  0  0  0  0  0  0
  -10.7770   -0.9700  -13.1830 O   0  0  0  0  0  0  0  0  0  0  0  0
  -10.2790   -1.7630  -11.0590 N   0  0  0  0  0  0  0  0  0  0  0  0
  -11.4740   -2.4160  -10.6940 C   0  0  0  0  0  0  0  0  0  0  0  0
  -12.4170   -1.6710   -9.9730 C   0  0  0  0  0  0  0  0  0  0  0  0
  -13.6310   -2.2410   -9.5810 C   0  0  0  0  0  0  0  0  0  0  0  0
  -13.9170   -3.5620   -9.9120 C   0  0  0  0  0  0  0  0  0  0  0  0
  -12.9900   -4.3100  -10.6340 C   0  0  0  0  0  0  0  0  0  0  0  0
  -11.7750   -3.7380  -11.0260 C   0  0  0  0  0  0  0  0  0  0  0  0
   -6.8030   -0.2040  -13.5120 C   0  0  0  0  0  0  0  0  0  0  0  0
   -6.2630   -1.2330  -12.8390 F   0  0  0  0  0  0  0  0  0  0  0  0
   -6.0530    0.4160  -14.5050 C   0  0  0  0  0  0  0  0  0  0  0  0
   -6.6050    1.4860  -15.2090 C   0  0  0  0  0  0  0  0  0  0  0  0
   -5.5160    2.3190  -16.5270 Br  0  0  0  0  0  0  0  0  0  0  0  0
   -8.0520    3.4100  -16.8440 C   0  0  0  0  0  0  0  0  0  0  0  0
   -8.6680    4.4990  -17.5880 C   0  0  0  0  0  0  0  0  0  0  0  0
   -8.1570    4.9150  -18.8090 C   0  0  0  0  0  0  0  0  0  0  0  0
   -8.6770    5.9190  -19.5500 N   0  0  0  0  0  0  0  0  0  0  0  0
   -9.7550    6.5610  -19.0670 C   0  0  0  0  0  0  0  0  0  0  0  0
  -10.3560    7.6000  -19.8000 N   0  0  0  0  0  0  0  0  0  0  0  0
   -9.9950    7.6230  -21.2090 C   0  0  0  0  0  0  0  0  0  0  0  0
  -10.3410    6.1950  -17.8530 C   0  0  0  0  0  0  0  0  0  0  0  0
   -9.7980    5.1510  -17.0950 C   0  0  0  0  0  0  0  0  0  0  0  0
  -12.8596    4.2756  -14.0010 H   0  0  0  0  0  0  0  0  0  0  0  0
  -13.5901    4.8360  -15.5434 H   0  0  0  0  0  0  0  0  0  0  0  0
  -12.4401    3.4561  -15.5434 H   0  0  0  0  0  0  0  0  0  0  0  0
  -11.8449    6.1899  -15.9566 H   0  0  0  0  0  0  0  0  0  0  0  0
  -11.2466    5.7876  -14.2887 H   0  0  0  0  0  0  0  0  0  0  0  0
   -9.6666    1.6263  -13.6787 H   0  0  0  0  0  0  0  0  0  0  0  0
   -8.3670   -0.3620  -11.2390 H   0  0  0  0  0  0  0  0  0  0  0  0
   -9.4840   -1.9380  -10.4660 H   0  0  0  0  0  0  0  0  0  0  0  0
  -12.1988   -0.6248   -9.7125 H   0  0  0  0  0  0  0  0  0  0  0  0
  -14.3600   -1.6460   -9.0113 H   0  0  0  0  0  0  0  0  0  0  0  0
  -14.8716   -4.0139   -9.6046 H   0  0  0  0  0  0  0  0  0  0  0  0
  -13.2141   -5.3543  -10.8969 H   0  0  0  0  0  0  0  0  0  0  0  0
  -11.0511   -4.3347  -11.6004 H   0  0  0  0  0  0  0  0  0  0  0  0
   -5.0352    0.0664  -14.7330 H   0  0  0  0  0  0  0  0  0  0  0  0
   -7.1738    2.8923  -17.2573 H   0  0  0  0  0  0  0  0  0  0  0  0
   -7.2707    4.3937  -19.1997 H   0  0  0  0  0  0  0  0  0  0  0  0
  -10.1540    8.4860  -19.3470 H   0  0  0  0  0  0  0  0  0  0  0  0
   -8.9015    7.6927  -21.3063 H   0  0  0  0  0  0  0  0  0  0  0  0
  -10.3481    6.7005  -21.6931 H   0  0  0  0  0  0  0  0  0  0  0  0
  -10.4624    8.4932  -21.6931 H   0  0  0  0  0  0  0  0  0  0  0  0
  -11.2322    6.7290  -17.4914 H   0  0  0  0  0  0  0  0  0  0  0  0
  1  2  1  0
  2  3  1  0
  3  4  1  0
  4  5  2  0
  4  6  1  0
  6  7  1  0
  7  8  1  0
  8  9  2  0
  9 10  1  0
 10 11  1  0
 11 12  2  0
 11 13  1  0
 13 14  1  0
 14 15  2  0
 15 16  1  0
 16 17  2  0
 17 18  1  0
 18 19  2  0
  9 20  1  0
 20 21  1  0
 20 22  2  0
 22 23  1  0
 23 24  1  0
  6 25  2  0
 25 26  1  0
 26 27  2  0
 27 28  1  0
 28 29  2  0
 29 30  1  0
 30 31  1  0
 29 32  1  0
 32 33  2  0
 33  3  1  0
 23  7  2  0
 33 26  1  0
 19 14  1  0
  1 34  1  0
  1 35  1  0
  1 36  1  0
  2 37  1  0
  2 38  1  0
  8 39  1  0
 10 40  1  0
 13 41  1  0
 15 42  1  0
 16 43  1  0
 17 44  1  0
 18 45  1  0
 19 46  1  0
 22 47  1  0
 25 48  1  0
 27 49  1  0
 30 50  1  0
 31 51  1  0
 31 52  1  0
 31 53  1  0
 32 54  1  0
M  END
>  <meeko>  (9) 
{"is_sidechain": false}

>  <vina_affinity_kcal_mol>  (9) 
-8.373

>  <pose_rank>  (9) 
9

$$$$

     RDKit          3D

 54 57  0  0  0  0  0  0  0  0999 V2000
   -1.7120   -2.2520  -17.6930 C   0  0  0  0  0  0  0  0  0  0  0  0
   -1.8030   -2.9860  -16.3630 C   0  0  0  0  0  0  0  0  0  0  0  0
   -3.1790   -3.3410  -16.0200 N   0  0  0  0  0  0  0  0  0  0  0  0
   -3.9490   -2.3620  -15.3860 C   0  0  0  0  0  0  0  0  0  0  0  0
   -3.5180   -1.2460  -15.0960 O   0  0  0  0  0  0  0  0  0  0  0  0
   -5.3700   -2.7110  -15.0500 C   0  0  0  0  0  0  0  0  0  0  0  0
   -6.2560   -1.7020  -14.4390 C   0  0  0  0  0  0  0  0  0  0  0  0
   -6.9390   -0.8120  -15.2920 C   0  0  0  0  0  0  0  0  0  0  0  0
   -7.7980    0.1570  -14.7720 C   0  0  0  0  0  0  0  0  0  0  0  0
   -8.5230    1.0800  -15.5560 N   0  0  0  0  0  0  0  0  0  0  0  0
   -8.2280    2.4190  -15.7630 C   0  0  0  0  0  0  0  0  0  0  0  0
   -7.3290    3.0240  -15.1960 O   0  0  0  0  0  0  0  0  0  0  0  0
   -9.1000    2.9600  -16.6960 N   0  0  0  0  0  0  0  0  0  0  0  0
   -9.1940    4.3060  -17.1060 C   0  0  0  0  0  0  0  0  0  0  0  0
   -8.3730    4.7100  -18.1680 C   0  0  0  0  0  0  0  0  0  0  0  0
   -8.4130    6.0240  -18.6410 C   0  0  0  0  0  0  0  0  0  0  0  0
   -9.2780    6.9460  -18.0610 C   0  0  0  0  0  0  0  0  0  0  0  0
  -10.1020    6.5530  -17.0100 C   0  0  0  0  0  0  0  0  0  0  0  0
  -10.0630    5.2370  -16.5360 C   0  0  0  0  0  0  0  0  0  0  0  0
   -7.9820    0.2130  -13.3850 C   0  0  0  0  0  0  0  0  0  0  0  0
   -8.8150    1.1310  -12.8690 F   0  0  0  0  0  0  0  0  0  0  0  0
   -7.3140   -0.6480  -12.5230 C   0  0  0  0  0  0  0  0  0  0  0  0
   -6.4450   -1.6030  -13.0490 C   0  0  0  0  0  0  0  0  0  0  0  0
   -5.5290   -2.7250  -11.8170 Br  0  0  0  0  0  0  0  0  0  0  0  0
   -5.8520   -3.9380  -15.3010 C   0  0  0  0  0  0  0  0  0  0  0  0
   -5.0000   -4.9520  -15.9060 C   0  0  0  0  0  0  0  0  0  0  0  0
   -5.4730   -6.2320  -16.1550 C   0  0  0  0  0  0  0  0  0  0  0  0
   -4.7370   -7.2200  -16.7120 N   0  0  0  0  0  0  0  0  0  0  0  0
   -3.4610   -6.9450  -17.0360 C   0  0  0  0  0  0  0  0  0  0  0  0
   -2.6510   -7.9240  -17.6380 N   0  0  0  0  0  0  0  0  0  0  0  0
   -1.3260   -7.4550  -18.0140 C   0  0  0  0  0  0  0  0  0  0  0  0
   -2.9120   -5.6780  -16.8320 C   0  0  0  0  0  0  0  0  0  0  0  0
   -3.6840   -4.6600  -16.2600 C   0  0  0  0  0  0  0  0  0  0  0  0
   -1.5786   -1.1757  -17.5094 H   0  0  0  0  0  0  0  0  0  0  0  0
   -0.8545   -2.6354  -18.2655 H   0  0  0  0  0  0  0  0  0  0  0  0
   -2.6372   -2.4144  -18.2655 H   0  0  0  0  0  0  0  0  0  0  0  0
   -1.2048   -3.9070  -16.4253 H   0  0  0  0  0  0  0  0  0  0  0  0
   -1.4231   -2.3133  -15.5799 H   0  0  0  0  0  0  0  0  0  0  0  0
   -6.7933   -0.8820  -16.3801 H   0  0  0  0  0  0  0  0  0  0  0  0
   -9.4450    0.7720  -15.8350 H   0  0  0  0  0  0  0  0  0  0  0  0
   -9.6310    2.2970  -17.2370 H   0  0  0  0  0  0  0  0  0  0  0  0
   -7.6899    3.9846  -18.6340 H   0  0  0  0  0  0  0  0  0  0  0  0
   -7.7604    6.3294  -19.4721 H   0  0  0  0  0  0  0  0  0  0  0  0
   -9.3108    7.9813  -18.4312 H   0  0  0  0  0  0  0  0  0  0  0  0
  -10.7870    7.2804  -16.5500 H   0  0  0  0  0  0  0  0  0  0  0  0
  -10.7217    4.9345  -15.7086 H   0  0  0  0  0  0  0  0  0  0  0  0
   -7.4692   -0.5769  -11.4363 H   0  0  0  0  0  0  0  0  0  0  0  0
   -6.8952   -4.1788  -15.0486 H   0  0  0  0  0  0  0  0  0  0  0  0
   -6.5143   -6.4579  -15.8816 H   0  0  0  0  0  0  0  0  0  0  0  0
   -3.1450   -8.3240  -18.4300 H   0  0  0  0  0  0  0  0  0  0  0  0
   -0.7394   -7.2474  -17.1069 H   0  0  0  0  0  0  0  0  0  0  0  0
   -0.8187   -8.2282  -18.6097 H   0  0  0  0  0  0  0  0  0  0  0  0
   -1.4181   -6.5349  -18.6097 H   0  0  0  0  0  0  0  0  0  0  0  0
   -1.8696   -5.4789  -17.1216 H   0  0  0  0  0  0  0  0  0  0  0  0
  1  2  1  0
  2  3  1  0
  3  4  1  0
  4  5  2  0
  4  6  1  0
  6  7  1  0
  7  8  1  0
  8  9  2  0
  9 10  1  0
 10 11  1  0
 11 12  2  0
 11 13  1  0
 13 14  1  0
 14 15  2  0
 15 16  1  0
 16 17  2  0
 17 18  1  0
 18 19  2  0
  9 20  1  0
 20 21  1  0
 20 22  2  0
 22 23  1  0
 23 24  1  0
  6 25  2  0
 25 26  1  0
 26 27  2  0
 27 28  1  0
 28 29  2  0
 29 30  1  0
 30 31  1  0
 29 32  1  0
 32 33  2  0
 33  3  1  0
 23  7  2  0
 33 26  1  0
 19 14  1  0
  1 34  1  0
  1 35  1  0
  1 36  1  0
  2 37  1  0
  2 38  1  0
  8 39  1  0
 10 40  1  0
 13 41  1  0
 15 42  1  0
 16 43  1  0
 17 44  1  0
 18 45  1  0
 19 46  1  0
 22 47  1  0
 25 48  1  0
 27 49  1  0
 30 50  1  0
 31 51  1  0
 31 52  1  0
 31 53  1  0
 32 54  1  0
M  END
>  <meeko>  (10) 
{"is_sidechain": false}

>  <vina_affinity_kcal_mol>  (10) 
-8.34

>  <pose_rank>  (10) 
10

$$$$
