
     RDKit          3D

 49 52  0  0  0  0  0  0  0  0999 V2000
    7.2068    2.4115   -0.7994 C   0  0  0  0  0  0  0  0  0  0  0  0
    6.3995    1.4349   -1.4503 O   0  0  0  0  0  0  0  0  0  0  0  0
    5.3455    0.8992   -0.7518 C   0  0  0  0  0  0  0  0  0  0  0  0
    5.0358    1.2620    0.5695 C   0  0  0  0  0  0  0  0  0  0  0  0
    3.9661    0.7136    1.2668 C   0  0  0  0  0  0  0  0  0  0  0  0
    3.7448    1.1168    2.5300 N   0  0  0  0  0  0  0  0  0  0  0  0
    2.7118    0.5715    3.2089 C   0  0  0  0  0  0  0  0  0  0  0  0
    1.8600   -0.3719    2.6783 C   0  0  0  0  0  0  0  0  0  0  0  0
    2.0802   -0.7641    1.3619 C   0  0  0  0  0  0  0  0  0  0  0  0
    1.2850   -1.7324    0.7847 O   0  0  0  0  0  0  0  0  0  0  0  0
   -0.0677   -1.4824    0.7163 C   0  0  0  0  0  0  0  0  0  0  0  0
   -0.6073   -0.2306    0.4164 C   0  0  0  0  0  0  0  0  0  0  0  0
   -1.9950   -0.0630    0.3366 C   0  0  0  0  0  0  0  0  0  0  0  0
   -2.8555   -1.1448    0.5427 C   0  0  0  0  0  0  0  0  0  0  0  0
   -4.2635   -1.0360    0.4665 N   0  0  0  0  0  0  0  0  0  0  0  0
   -5.0207    0.1132    0.3852 C   0  0  0  0  0  0  0  0  0  0  0  0
   -4.6041    1.2626    0.4532 O   0  0  0  0  0  0  0  0  0  0  0  0
   -6.3645   -0.1936    0.2364 N   0  0  0  0  0  0  0  0  0  0  0  0
   -7.3520    0.8317    0.0826 C   0  0  0  0  0  0  0  0  0  0  0  0
   -7.9426    1.1300   -1.2675 C   0  0  0  0  0  0  0  0  0  0  0  0
   -8.7841    0.4764   -0.2109 C   0  0  0  0  0  0  0  0  0  0  0  0
   -2.2928   -2.4071    0.8119 C   0  0  0  0  0  0  0  0  0  0  0  0
   -3.2995   -3.7965    1.0542 Cl  0  0  0  0  0  0  0  0  0  0  0  0
   -0.9094   -2.5776    0.8947 C   0  0  0  0  0  0  0  0  0  0  0  0
    3.1603   -0.2405    0.6251 C   0  0  0  0  0  0  0  0  0  0  0  0
    3.4584   -0.6169   -0.7011 C   0  0  0  0  0  0  0  0  0  0  0  0
    4.5431   -0.0579   -1.3976 C   0  0  0  0  0  0  0  0  0  0  0  0
    4.7451   -0.5468   -2.7991 C   0  0  0  0  0  0  0  0  0  0  0  0
    5.7882   -0.0474   -3.5198 N   0  0  0  0  0  0  0  0  0  0  0  0
    3.9974   -1.3783   -3.3029 O   0  0  0  0  0  0  0  0  0  0  0  0
    7.7055    1.9887    0.0788 H   0  0  0  0  0  0  0  0  0  0  0  0
    7.9837    2.7229   -1.5042 H   0  0  0  0  0  0  0  0  0  0  0  0
    6.6200    3.2984   -0.5390 H   0  0  0  0  0  0  0  0  0  0  0  0
    5.6292    1.9955    1.1078 H   0  0  0  0  0  0  0  0  0  0  0  0
    2.5897    0.9266    4.2285 H   0  0  0  0  0  0  0  0  0  0  0  0
    1.0548   -0.7880    3.2716 H   0  0  0  0  0  0  0  0  0  0  0  0
    0.0347    0.6265    0.2281 H   0  0  0  0  0  0  0  0  0  0  0  0
   -2.3722    0.9269    0.0951 H   0  0  0  0  0  0  0  0  0  0  0  0
   -4.7714   -1.8922    0.6465 H   0  0  0  0  0  0  0  0  0  0  0  0
   -6.5691   -1.0915   -0.1790 H   0  0  0  0  0  0  0  0  0  0  0  0
   -7.1929    1.6800    0.7466 H   0  0  0  0  0  0  0  0  0  0  0  0
   -8.1374    2.1690   -1.5084 H   0  0  0  0  0  0  0  0  0  0  0  0
   -7.6253    0.5333   -2.1141 H   0  0  0  0  0  0  0  0  0  0  0  0
   -9.0490   -0.5652   -0.3442 H   0  0  0  0  0  0  0  0  0  0  0  0
   -9.5567    1.0719    0.2624 H   0  0  0  0  0  0  0  0  0  0  0  0
   -0.4845   -3.5566    1.0987 H   0  0  0  0  0  0  0  0  0  0  0  0
    2.8327   -1.3581   -1.1989 H   0  0  0  0  0  0  0  0  0  0  0  0
    5.9221   -0.3722   -4.4665 H   0  0  0  0  0  0  0  0  0  0  0  0
    6.4171    0.6455   -3.1317 H   0  0  0  0  0  0  0  0  0  0  0  0
  1  2  1  0
  2  3  1  0
  3  4  1  0
  4  5  2  0
  5  6  1  0
  6  7  2  0
  7  8  1  0
  8  9  2  0
  9 10  1  0
 10 11  1  0
 11 12  1  0
 12 13  2  0
 13 14  1  0
 14 15  1  0
 15 16  1  0
 16 17  2  0
 16 18  1  0
 18 19  1  0
 19 20  1  0
 20 21  1  0
 14 22  2  0
 22 23  1  0
 22 24  1  0
  9 25  1  0
 25 26  2  0
 26 27  1  0
 27 28  1  0
 28 29  1  0
 28 30  2  0
 27  3  2  0
 25  5  1  0
 24 11  2  0
 21 19  1  0
  1 31  1  0
  1 32  1  0
  1 33  1  0
  4 34  1  0
  7 35  1  0
  8 36  1  0
 12 37  1  0
 13 38  1  0
 15 39  1  0
 18 40  1  0
 19 41  1  0
 20 42  1  0
 20 43  1  0
 21 44  1  0
 21 45  1  0
 24 46  1  0
 26 47  1  0
 29 48  1  0
 29 49  1  0
M  END
$$$$
