
     RDKit          3D

 49 52  0  0  0  0  0  0  0  0999 V2000
  -15.1520    1.3190   -8.3860 C   0  0  0  0  0  0  0  0  0  0  0  0
  -15.0560    0.6680   -9.6500 O   0  0  0  0  0  0  0  0  0  0  0  0
  -13.9980    0.9910  -10.4630 C   0  0  0  0  0  0  0  0  0  0  0  0
  -14.0860    1.9400  -11.4960 C   0  0  0  0  0  0  0  0  0  0  0  0
  -13.0090    2.2600  -12.3130 C   0  0  0  0  0  0  0  0  0  0  0  0
  -13.1830    3.1780  -13.2800 N   0  0  0  0  0  0  0  0  0  0  0  0
  -12.1370    3.4770  -14.0810 C   0  0  0  0  0  0  0  0  0  0  0  0
  -10.8910    2.9000  -13.9600 C   0  0  0  0  0  0  0  0  0  0  0  0
  -10.7120    1.9710  -12.9410 C   0  0  0  0  0  0  0  0  0  0  0  0
   -9.5000    1.3310  -12.7910 O   0  0  0  0  0  0  0  0  0  0  0  0
   -8.6970    1.2250  -13.9060 C   0  0  0  0  0  0  0  0  0  0  0  0
   -8.9280    0.3180  -14.9400 C   0  0  0  0  0  0  0  0  0  0  0  0
   -8.0820    0.2900  -16.0550 C   0  0  0  0  0  0  0  0  0  0  0  0
   -7.0060    1.1780  -16.1540 C   0  0  0  0  0  0  0  0  0  0  0  0
   -6.1250    1.2020  -17.2600 N   0  0  0  0  0  0  0  0  0  0  0  0
   -4.9240    0.5400  -17.4000 C   0  0  0  0  0  0  0  0  0  0  0  0
   -4.3580   -0.1250  -16.5400 O   0  0  0  0  0  0  0  0  0  0  0  0
   -4.3950    0.7430  -18.6660 N   0  0  0  0  0  0  0  0  0  0  0  0
   -3.1710    0.1210  -19.0710 C   0  0  0  0  0  0  0  0  0  0  0  0
   -2.5880    0.3940  -20.4300 C   0  0  0  0  0  0  0  0  0  0  0  0
   -1.9110    0.9330  -19.2050 C   0  0  0  0  0  0  0  0  0  0  0  0
   -6.8080    2.1090  -15.1170 C   0  0  0  0  0  0  0  0  0  0  0  0
   -5.5090    3.2550  -15.1860 Cl  0  0  0  0  0  0  0  0  0  0  0  0
   -7.6490    2.1370  -14.0010 C   0  0  0  0  0  0  0  0  0  0  0  0
  -11.7820    1.6110  -12.0980 C   0  0  0  0  0  0  0  0  0  0  0  0
  -11.6780    0.6540  -11.0670 C   0  0  0  0  0  0  0  0  0  0  0  0
  -12.7730    0.3360  -10.2460 C   0  0  0  0  0  0  0  0  0  0  0  0
  -12.5240   -0.6960   -9.1900 C   0  0  0  0  0  0  0  0  0  0  0  0
  -13.3350   -1.7900   -9.1420 N   0  0  0  0  0  0  0  0  0  0  0  0
  -11.6140   -0.5750   -8.3760 O   0  0  0  0  0  0  0  0  0  0  0  0
  -15.0425    0.5764   -7.5819 H   0  0  0  0  0  0  0  0  0  0  0  0
  -14.3553    2.0726   -8.3002 H   0  0  0  0  0  0  0  0  0  0  0  0
  -16.1323    1.8105   -8.3002 H   0  0  0  0  0  0  0  0  0  0  0  0
  -15.0461    2.4497  -11.6643 H   0  0  0  0  0  0  0  0  0  0  0  0
  -12.2882    4.2233  -14.8748 H   0  0  0  0  0  0  0  0  0  0  0  0
  -10.0702    3.1642  -14.6430 H   0  0  0  0  0  0  0  0  0  0  0  0
   -9.7779   -0.3777  -14.8792 H   0  0  0  0  0  0  0  0  0  0  0  0
   -8.2651   -0.4367  -16.8602 H   0  0  0  0  0  0  0  0  0  0  0  0
   -6.3320    1.9030  -17.9590 H   0  0  0  0  0  0  0  0  0  0  0  0
   -5.0620    0.9590  -19.3920 H   0  0  0  0  0  0  0  0  0  0  0  0
   -3.4604   -0.7833  -18.5155 H   0  0  0  0  0  0  0  0  0  0  0  0
   -2.1215   -0.4217  -21.0019 H   0  0  0  0  0  0  0  0  0  0  0  0
   -2.9677    0.8327  -21.3645 H   0  0  0  0  0  0  0  0  0  0  0  0
   -0.9484    0.5123  -18.8787 H   0  0  0  0  0  0  0  0  0  0  0  0
   -1.5892    1.9300  -18.8696 H   0  0  0  0  0  0  0  0  0  0  0  0
   -7.4840    2.8752  -13.2024 H   0  0  0  0  0  0  0  0  0  0  0  0
  -10.7171    0.1447  -10.9019 H   0  0  0  0  0  0  0  0  0  0  0  0
  -13.1710   -2.4840   -8.4270 H   0  0  0  0  0  0  0  0  0  0  0  0
  -14.0980   -1.9120   -9.7970 H   0  0  0  0  0  0  0  0  0  0  0  0
  1  2  1  0
  2  3  1  0
  3  4  1  0
  4  5  2  0
  5  6  1  0
  6  7  2  0
  7  8  1  0
  8  9  2  0
  9 10  1  0
 10 11  1  0
 11 12  1  0
 12 13  2  0
 13 14  1  0
 14 15  1  0
 15 16  1  0
 16 17  2  0
 16 18  1  0
 18 19  1  0
 19 20  1  0
 20 21  1  0
 14 22  2  0
 22 23  1  0
 22 24  1  0
  9 25  1  0
 25 26  2  0
 26 27  1  0
 27 28  1  0
 28 29  1  0
 28 30  2  0
 27  3  2  0
 25  5  1  0
 24 11  2  0
 21 19  1  0
  1 31  1  0
  1 32  1  0
  1 33  1  0
  4 34  1  0
  7 35  1  0
  8 36  1  0
 12 37  1  0
 13 38  1  0
 15 39  1  0
 18 40  1  0
 19 41  1  0
 20 42  1  0
 20 43  1  0
 21 44  1  0
 21 45  1  0
 24 46  1  0
 26 47  1  0
 29 48  1  0
 29 49  1  0
M  END
>  <meeko>  (1) 
{"is_sidechain": false}

>  <vina_affinity_kcal_mol>  (1) 
-8.215

>  <pose_rank>  (1) 
1

$$$$

     RDKit          3D

 49 52  0  0  0  0  0  0  0  0999 V2000
   -6.9460    4.4360  -18.0480 C   0  0  0  0  0  0  0  0  0  0  0  0
   -7.6050    3.1890  -17.8460 O   0  0  0  0  0  0  0  0  0  0  0  0
   -8.4380    3.0670  -16.7620 C   0  0  0  0  0  0  0  0  0  0  0  0
   -9.5200    3.9320  -16.5240 C   0  0  0  0  0  0  0  0  0  0  0  0
  -10.3580    3.7980  -15.4240 C   0  0  0  0  0  0  0  0  0  0  0  0
  -11.3680    4.6730  -15.2720 N   0  0  0  0  0  0  0  0  0  0  0  0
  -12.1720    4.5480  -14.1940 C   0  0  0  0  0  0  0  0  0  0  0  0
  -12.0250    3.5660  -13.2390 C   0  0  0  0  0  0  0  0  0  0  0  0
  -10.9940    2.6500  -13.4170 C   0  0  0  0  0  0  0  0  0  0  0  0
  -10.7710    1.6660  -12.4770 O   0  0  0  0  0  0  0  0  0  0  0  0
  -11.8390    1.2840  -11.6940 C   0  0  0  0  0  0  0  0  0  0  0  0
  -13.0900    1.8970  -11.7450 C   0  0  0  0  0  0  0  0  0  0  0  0
  -14.1350    1.4320  -10.9370 C   0  0  0  0  0  0  0  0  0  0  0  0
  -13.9430    0.3430  -10.0810 C   0  0  0  0  0  0  0  0  0  0  0  0
  -14.9640   -0.1740   -9.2500 N   0  0  0  0  0  0  0  0  0  0  0  0
  -15.6650    0.4830   -8.2620 C   0  0  0  0  0  0  0  0  0  0  0  0
  -15.4630    1.6240   -7.8650 O   0  0  0  0  0  0  0  0  0  0  0  0
  -16.6480   -0.3370   -7.7290 N   0  0  0  0  0  0  0  0  0  0  0  0
  -17.5430    0.1330   -6.7150 C   0  0  0  0  0  0  0  0  0  0  0  0
  -18.7760    0.9100   -7.0830 C   0  0  0  0  0  0  0  0  0  0  0  0
  -18.9040   -0.4870   -6.5510 C   0  0  0  0  0  0  0  0  0  0  0  0
  -12.6830   -0.2840  -10.0680 C   0  0  0  0  0  0  0  0  0  0  0  0
  -12.3820   -1.6540   -9.0500 Cl  0  0  0  0  0  0  0  0  0  0  0  0
  -11.6370    0.1790  -10.8700 C   0  0  0  0  0  0  0  0  0  0  0  0
  -10.1160    2.7570  -14.5130 C   0  0  0  0  0  0  0  0  0  0  0  0
   -9.0330    1.8810  -14.7360 C   0  0  0  0  0  0  0  0  0  0  0  0
   -8.1900    2.0240  -15.8520 C   0  0  0  0  0  0  0  0  0  0  0  0
   -7.0790    1.0260  -15.9670 C   0  0  0  0  0  0  0  0  0  0  0  0
   -7.0630    0.1910  -17.0440 N   0  0  0  0  0  0  0  0  0  0  0  0
   -6.1960    0.9470  -15.1200 O   0  0  0  0  0  0  0  0  0  0  0  0
   -6.7077    4.8869  -17.0734 H   0  0  0  0  0  0  0  0  0  0  0  0
   -6.0167    4.2723  -18.6133 H   0  0  0  0  0  0  0  0  0  0  0  0
   -7.6048    5.1116  -18.6133 H   0  0  0  0  0  0  0  0  0  0  0  0
   -9.7109    4.7475  -17.2371 H   0  0  0  0  0  0  0  0  0  0  0  0
  -12.9912    5.2718  -14.0715 H   0  0  0  0  0  0  0  0  0  0  0  0
  -12.6968    3.5088  -12.3698 H   0  0  0  0  0  0  0  0  0  0  0  0
  -13.2567    2.7481  -12.4216 H   0  0  0  0  0  0  0  0  0  0  0  0
  -15.1160    1.9280  -10.9760 H   0  0  0  0  0  0  0  0  0  0  0  0
  -15.0790   -1.1780   -9.2870 H   0  0  0  0  0  0  0  0  0  0  0  0
  -16.9870   -1.0700   -8.3350 H   0  0  0  0  0  0  0  0  0  0  0  0
  -16.6815    0.3080   -6.0538 H   0  0  0  0  0  0  0  0  0  0  0  0
  -19.0919    1.7642   -6.4661 H   0  0  0  0  0  0  0  0  0  0  0  0
  -19.1245    1.4326   -7.9860 H   0  0  0  0  0  0  0  0  0  0  0  0
  -19.3133   -0.6567   -5.5442 H   0  0  0  0  0  0  0  0  0  0  0  0
  -19.3846   -1.4119   -6.9024 H   0  0  0  0  0  0  0  0  0  0  0  0
  -10.6599   -0.3258  -10.8510 H   0  0  0  0  0  0  0  0  0  0  0  0
   -8.8437    1.0674  -14.0203 H   0  0  0  0  0  0  0  0  0  0  0  0
   -6.3180   -0.4870  -17.1200 H   0  0  0  0  0  0  0  0  0  0  0  0
   -7.7830    0.2290  -17.7550 H   0  0  0  0  0  0  0  0  0  0  0  0
  1  2  1  0
  2  3  1  0
  3  4  1  0
  4  5  2  0
  5  6  1  0
  6  7  2  0
  7  8  1  0
  8  9  2  0
  9 10  1  0
 10 11  1  0
 11 12  1  0
 12 13  2  0
 13 14  1  0
 14 15  1  0
 15 16  1  0
 16 17  2  0
 16 18  1  0
 18 19  1  0
 19 20  1  0
 20 21  1  0
 14 22  2  0
 22 23  1  0
 22 24  1  0
  9 25  1  0
 25 26  2  0
 26 27  1  0
 27 28  1  0
 28 29  1  0
 28 30  2  0
 27  3  2  0
 25  5  1  0
 24 11  2  0
 21 19  1  0
  1 31  1  0
  1 32  1  0
  1 33  1  0
  4 34  1  0
  7 35  1  0
  8 36  1  0
 12 37  1  0
 13 38  1  0
 15 39  1  0
 18 40  1  0
 19 41  1  0
 20 42  1  0
 20 43  1  0
 21 44  1  0
 21 45  1  0
 24 46  1  0
 26 47  1  0
 29 48  1  0
 29 49  1  0
M  END
>  <meeko>  (2) 
{"is_sidechain": false}

>  <vina_affinity_kcal_mol>  (2) 
-8.204

>  <pose_rank>  (2) 
2

$$$$

     RDKit          3D

 49 52  0  0  0  0  0  0  0  0999 V2000
  -13.7320    2.3520  -12.1090 C   0  0  0  0  0  0  0  0  0  0  0  0
  -12.3090    2.3120  -12.0490 O   0  0  0  0  0  0  0  0  0  0  0  0
  -11.6060    2.6220  -13.1870 C   0  0  0  0  0  0  0  0  0  0  0  0
  -11.6980    3.8670  -13.8320 C   0  0  0  0  0  0  0  0  0  0  0  0
  -10.9810    4.1700  -14.9830 C   0  0  0  0  0  0  0  0  0  0  0  0
  -11.1330    5.3860  -15.5350 N   0  0  0  0  0  0  0  0  0  0  0  0
  -10.4440    5.6720  -16.6620 C   0  0  0  0  0  0  0  0  0  0  0  0
   -9.5820    4.7900  -17.2770 C   0  0  0  0  0  0  0  0  0  0  0  0
   -9.4110    3.5440  -16.6840 C   0  0  0  0  0  0  0  0  0  0  0  0
   -8.5910    2.6030  -17.2710 O   0  0  0  0  0  0  0  0  0  0  0  0
   -7.5340    2.1310  -16.5250 C   0  0  0  0  0  0  0  0  0  0  0  0
   -6.7260    2.9440  -15.7310 C   0  0  0  0  0  0  0  0  0  0  0  0
   -5.6860    2.3830  -14.9790 C   0  0  0  0  0  0  0  0  0  0  0  0
   -5.4530    1.0050  -15.0020 C   0  0  0  0  0  0  0  0  0  0  0  0
   -4.4240    0.3830  -14.2570 N   0  0  0  0  0  0  0  0  0  0  0  0
   -4.5280   -0.2550  -13.0400 C   0  0  0  0  0  0  0  0  0  0  0  0
   -5.5300   -0.3210  -12.3380 O   0  0  0  0  0  0  0  0  0  0  0  0
   -3.3140   -0.8160  -12.6750 N   0  0  0  0  0  0  0  0  0  0  0  0
   -3.1750   -1.5740  -11.4680 C   0  0  0  0  0  0  0  0  0  0  0  0
   -1.9180   -2.3510  -11.1920 C   0  0  0  0  0  0  0  0  0  0  0  0
   -2.2300   -1.1240  -10.3880 C   0  0  0  0  0  0  0  0  0  0  0  0
   -6.3000    0.1960  -15.7840 C   0  0  0  0  0  0  0  0  0  0  0  0
   -6.0840   -1.5230  -15.8410 Cl  0  0  0  0  0  0  0  0  0  0  0  0
   -7.3360    0.7520  -16.5380 C   0  0  0  0  0  0  0  0  0  0  0  0
  -10.1280    3.1940  -15.5230 C   0  0  0  0  0  0  0  0  0  0  0  0
  -10.0250    1.9380  -14.8890 C   0  0  0  0  0  0  0  0  0  0  0  0
  -10.7560    1.6400  -13.7260 C   0  0  0  0  0  0  0  0  0  0  0  0
  -10.5520    0.2700  -13.1560 C   0  0  0  0  0  0  0  0  0  0  0  0
  -10.5070    0.1280  -11.8010 N   0  0  0  0  0  0  0  0  0  0  0  0
  -10.4240   -0.7130  -13.8780 O   0  0  0  0  0  0  0  0  0  0  0  0
  -14.1418    2.3635  -11.0883 H   0  0  0  0  0  0  0  0  0  0  0  0
  -14.0511    3.2595  -12.6425 H   0  0  0  0  0  0  0  0  0  0  0  0
  -14.1016    1.4639  -12.6425 H   0  0  0  0  0  0  0  0  0  0  0  0
  -12.3646    4.6327  -13.4086 H   0  0  0  0  0  0  0  0  0  0  0  0
  -10.5790    6.6656  -17.1142 H   0  0  0  0  0  0  0  0  0  0  0  0
   -9.0500    5.0611  -18.2009 H   0  0  0  0  0  0  0  0  0  0  0  0
   -6.9058    4.0286  -15.6951 H   0  0  0  0  0  0  0  0  0  0  0  0
   -5.0463    3.0333  -14.3643 H   0  0  0  0  0  0  0  0  0  0  0  0
   -3.4860    0.5650  -14.5870 H   0  0  0  0  0  0  0  0  0  0  0  0
   -2.6870   -1.0430  -13.4320 H   0  0  0  0  0  0  0  0  0  0  0  0
   -4.2466   -1.8182  -11.5141 H   0  0  0  0  0  0  0  0  0  0  0  0
   -1.9776   -3.3447  -10.7240 H   0  0  0  0  0  0  0  0  0  0  0  0
   -1.0632   -2.6869  -11.7974 H   0  0  0  0  0  0  0  0  0  0  0  0
   -2.5185   -1.2181   -9.3307 H   0  0  0  0  0  0  0  0  0  0  0  0
   -1.6989   -0.1881  -10.1600 H   0  0  0  0  0  0  0  0  0  0  0  0
   -7.9919    0.1047  -17.1387 H   0  0  0  0  0  0  0  0  0  0  0  0
   -9.3573    1.1744  -15.3145 H   0  0  0  0  0  0  0  0  0  0  0  0
  -10.3640   -0.7950  -11.4160 H   0  0  0  0  0  0  0  0  0  0  0  0
  -10.6020    0.9230  -11.1810 H   0  0  0  0  0  0  0  0  0  0  0  0
  1  2  1  0
  2  3  1  0
  3  4  1  0
  4  5  2  0
  5  6  1  0
  6  7  2  0
  7  8  1  0
  8  9  2  0
  9 10  1  0
 10 11  1  0
 11 12  1  0
 12 13  2  0
 13 14  1  0
 14 15  1  0
 15 16  1  0
 16 17  2  0
 16 18  1  0
 18 19  1  0
 19 20  1  0
 20 21  1  0
 14 22  2  0
 22 23  1  0
 22 24  1  0
  9 25  1  0
 25 26  2  0
 26 27  1  0
 27 28  1  0
 28 29  1  0
 28 30  2  0
 27  3  2  0
 25  5  1  0
 24 11  2  0
 21 19  1  0
  1 31  1  0
  1 32  1  0
  1 33  1  0
  4 34  1  0
  7 35  1  0
  8 36  1  0
 12 37  1  0
 13 38  1  0
 15 39  1  0
 18 40  1  0
 19 41  1  0
 20 42  1  0
 20 43  1  0
 21 44  1  0
 21 45  1  0
 24 46  1  0
 26 47  1  0
 29 48  1  0
 29 49  1  0
M  END
>  <meeko>  (3) 
{"is_sidechain": false}

>  <vina_affinity_kcal_mol>  (3) 
-8.167

>  <pose_rank>  (3) 
3

$$$$

     RDKit          3D

 49 52  0  0  0  0  0  0  0  0999 V2000
   -1.4050   -3.1830  -17.2870 C   0  0  0  0  0  0  0  0  0  0  0  0
   -2.0530   -2.0220  -17.7960 O   0  0  0  0  0  0  0  0  0  0  0  0
   -2.9090   -1.3420  -16.9650 C   0  0  0  0  0  0  0  0  0  0  0  0
   -3.8810   -1.9810  -16.1760 C   0  0  0  0  0  0  0  0  0  0  0  0
   -4.7420   -1.2840  -15.3370 C   0  0  0  0  0  0  0  0  0  0  0  0
   -5.6440   -1.9760  -14.6200 N   0  0  0  0  0  0  0  0  0  0  0  0
   -6.4880   -1.2940  -13.8160 C   0  0  0  0  0  0  0  0  0  0  0  0
   -6.4740    0.0770  -13.6790 C   0  0  0  0  0  0  0  0  0  0  0  0
   -5.5210    0.7830  -14.4050 C   0  0  0  0  0  0  0  0  0  0  0  0
   -5.4790    2.1600  -14.3390 O   0  0  0  0  0  0  0  0  0  0  0  0
   -6.1470    2.8610  -15.3200 C   0  0  0  0  0  0  0  0  0  0  0  0
   -5.5050    3.5240  -16.3660 C   0  0  0  0  0  0  0  0  0  0  0  0
   -6.2560    4.1920  -17.3410 C   0  0  0  0  0  0  0  0  0  0  0  0
   -7.6530    4.1920  -17.2880 C   0  0  0  0  0  0  0  0  0  0  0  0
   -8.4620    4.8420  -18.2500 N   0  0  0  0  0  0  0  0  0  0  0  0
   -8.9650    6.1250  -18.2050 C   0  0  0  0  0  0  0  0  0  0  0  0
   -8.8700    6.9090  -17.2690 O   0  0  0  0  0  0  0  0  0  0  0  0
   -9.6380    6.4290  -19.3790 N   0  0  0  0  0  0  0  0  0  0  0  0
  -10.2140    7.7220  -19.5940 C   0  0  0  0  0  0  0  0  0  0  0  0
   -9.3620    8.8720  -20.0530 C   0  0  0  0  0  0  0  0  0  0  0  0
  -10.3670    8.2670  -20.9880 C   0  0  0  0  0  0  0  0  0  0  0  0
   -8.2840    3.4900  -16.2440 C   0  0  0  0  0  0  0  0  0  0  0  0
  -10.0120    3.4280  -16.1300 Cl  0  0  0  0  0  0  0  0  0  0  0  0
   -7.5380    2.8250  -15.2670 C   0  0  0  0  0  0  0  0  0  0  0  0
   -4.6370    0.1150  -15.2740 C   0  0  0  0  0  0  0  0  0  0  0  0
   -3.6680    0.7710  -16.0610 C   0  0  0  0  0  0  0  0  0  0  0  0
   -2.8020    0.0580  -16.9080 C   0  0  0  0  0  0  0  0  0  0  0  0
   -1.8210    0.8800  -17.6860 C   0  0  0  0  0  0  0  0  0  0  0  0
   -2.2140    1.4040  -18.8820 N   0  0  0  0  0  0  0  0  0  0  0  0
   -0.6850    1.0860  -17.2730 O   0  0  0  0  0  0  0  0  0  0  0  0
   -1.4188   -3.1582  -16.1874 H   0  0  0  0  0  0  0  0  0  0  0  0
   -1.9320   -4.0816  -17.6402 H   0  0  0  0  0  0  0  0  0  0  0  0
   -0.3635   -3.2062  -17.6402 H   0  0  0  0  0  0  0  0  0  0  0  0
   -3.9634   -3.0768  -16.2246 H   0  0  0  0  0  0  0  0  0  0  0  0
   -7.2288   -1.8655  -13.2376 H   0  0  0  0  0  0  0  0  0  0  0  0
   -7.1888    0.5929  -13.0210 H   0  0  0  0  0  0  0  0  0  0  0  0
   -4.4066    3.5221  -16.4251 H   0  0  0  0  0  0  0  0  0  0  0  0
   -5.7418    4.7218  -18.1564 H   0  0  0  0  0  0  0  0  0  0  0  0
   -8.8330    4.2420  -18.9740 H   0  0  0  0  0  0  0  0  0  0  0  0
   -9.3530    5.9120  -20.1970 H   0  0  0  0  0  0  0  0  0  0  0  0
  -10.8933    7.5464  -18.7469 H   0  0  0  0  0  0  0  0  0  0  0  0
   -9.5297    9.8786  -19.6422 H   0  0  0  0  0  0  0  0  0  0  0  0
   -8.2807    9.0692  -20.0962 H   0  0  0  0  0  0  0  0  0  0  0  0
  -11.2715    8.8298  -21.2622 H   0  0  0  0  0  0  0  0  0  0  0  0
  -10.3276    7.8370  -21.9997 H   0  0  0  0  0  0  0  0  0  0  0  0
   -8.0468    2.2763  -14.4608 H   0  0  0  0  0  0  0  0  0  0  0  0
   -3.5879    1.8669  -16.0108 H   0  0  0  0  0  0  0  0  0  0  0  0
   -1.5520    1.9530  -19.4100 H   0  0  0  0  0  0  0  0  0  0  0  0
   -3.1430    1.2440  -19.2510 H   0  0  0  0  0  0  0  0  0  0  0  0
  1  2  1  0
  2  3  1  0
  3  4  1  0
  4  5  2  0
  5  6  1  0
  6  7  2  0
  7  8  1  0
  8  9  2  0
  9 10  1  0
 10 11  1  0
 11 12  1  0
 12 13  2  0
 13 14  1  0
 14 15  1  0
 15 16  1  0
 16 17  2  0
 16 18  1  0
 18 19  1  0
 19 20  1  0
 20 21  1  0
 14 22  2  0
 22 23  1  0
 22 24  1  0
  9 25  1  0
 25 26  2  0
 26 27  1  0
 27 28  1  0
 28 29  1  0
 28 30  2  0
 27  3  2  0
 25  5  1  0
 24 11  2  0
 21 19  1  0
  1 31  1  0
  1 32  1  0
  1 33  1  0
  4 34  1  0
  7 35  1  0
  8 36  1  0
 12 37  1  0
 13 38  1  0
 15 39  1  0
 18 40  1  0
 19 41  1  0
 20 42  1  0
 20 43  1  0
 21 44  1  0
 21 45  1  0
 24 46  1  0
 26 47  1  0
 29 48  1  0
 29 49  1  0
M  END
>  <meeko>  (4) 
{"is_sidechain": false}

>  <vina_affinity_kcal_mol>  (4) 
-7.985

>  <pose_rank>  (4) 
4

$$$$

     RDKit          3D

 49 52  0  0  0  0  0  0  0  0999 V2000
   -4.0740   -7.1830  -17.5130 C   0  0  0  0  0  0  0  0  0  0  0  0
   -4.1220   -6.5720  -16.2280 O   0  0  0  0  0  0  0  0  0  0  0  0
   -3.9380   -5.2130  -16.1510 C   0  0  0  0  0  0  0  0  0  0  0  0
   -2.8350   -4.5550  -16.7200 C   0  0  0  0  0  0  0  0  0  0  0  0
   -2.6590   -3.1790  -16.6370 C   0  0  0  0  0  0  0  0  0  0  0  0
   -1.5720   -2.6320  -17.2080 N   0  0  0  0  0  0  0  0  0  0  0  0
   -1.3970   -1.2960  -17.1140 C   0  0  0  0  0  0  0  0  0  0  0  0
   -2.2770   -0.4530  -16.4710 C   0  0  0  0  0  0  0  0  0  0  0  0
   -3.4130   -1.0230  -15.9060 C   0  0  0  0  0  0  0  0  0  0  0  0
   -4.3130   -0.2380  -15.2170 O   0  0  0  0  0  0  0  0  0  0  0  0
   -5.1160    0.6020  -15.9560 C   0  0  0  0  0  0  0  0  0  0  0  0
   -6.2330    0.1700  -16.6710 C   0  0  0  0  0  0  0  0  0  0  0  0
   -7.0170    1.0910  -17.3770 C   0  0  0  0  0  0  0  0  0  0  0  0
   -6.7010    2.4530  -17.3640 C   0  0  0  0  0  0  0  0  0  0  0  0
   -7.4610    3.4280  -18.0510 N   0  0  0  0  0  0  0  0  0  0  0  0
   -8.4750    4.2170  -17.5520 C   0  0  0  0  0  0  0  0  0  0  0  0
   -8.9620    4.1480  -16.4300 O   0  0  0  0  0  0  0  0  0  0  0  0
   -8.9150    5.1160  -18.5110 N   0  0  0  0  0  0  0  0  0  0  0  0
   -9.9350    6.0780  -18.2200 C   0  0  0  0  0  0  0  0  0  0  0  0
   -9.5850    7.3990  -17.5930 C   0  0  0  0  0  0  0  0  0  0  0  0
  -10.0400    7.3460  -19.0220 C   0  0  0  0  0  0  0  0  0  0  0  0
   -5.5890    2.8750  -16.6100 C   0  0  0  0  0  0  0  0  0  0  0  0
   -5.1530    4.5500  -16.5300 Cl  0  0  0  0  0  0  0  0  0  0  0  0
   -4.8030    1.9590  -15.9070 C   0  0  0  0  0  0  0  0  0  0  0  0
   -3.6220   -2.4150  -15.9590 C   0  0  0  0  0  0  0  0  0  0  0  0
   -4.7350   -3.0610  -15.3800 C   0  0  0  0  0  0  0  0  0  0  0  0
   -4.9040   -4.4530  -15.4680 C   0  0  0  0  0  0  0  0  0  0  0  0
   -6.1290   -5.0080  -14.8100 C   0  0  0  0  0  0  0  0  0  0  0  0
   -6.7780   -6.0460  -15.4100 N   0  0  0  0  0  0  0  0  0  0  0  0
   -6.5550   -4.5500  -13.7550 O   0  0  0  0  0  0  0  0  0  0  0  0
   -3.9883   -8.2736  -17.3975 H   0  0  0  0  0  0  0  0  0  0  0  0
   -4.9937   -6.9441  -18.0672 H   0  0  0  0  0  0  0  0  0  0  0  0
   -3.2029   -6.8034  -18.0672 H   0  0  0  0  0  0  0  0  0  0  0  0
   -2.0805   -5.1527  -17.2525 H   0  0  0  0  0  0  0  0  0  0  0  0
   -0.5013   -0.8561  -17.5769 H   0  0  0  0  0  0  0  0  0  0  0  0
   -2.0884    0.6288  -16.4070 H   0  0  0  0  0  0  0  0  0  0  0  0
   -6.4989   -0.8973  -16.6804 H   0  0  0  0  0  0  0  0  0  0  0  0
   -7.8896    0.7396  -17.9471 H   0  0  0  0  0  0  0  0  0  0  0  0
   -7.3450    3.4330  -19.0550 H   0  0  0  0  0  0  0  0  0  0  0  0
   -8.2460    5.3610  -19.2250 H   0  0  0  0  0  0  0  0  0  0  0  0
  -10.6209    5.2553  -17.9697 H   0  0  0  0  0  0  0  0  0  0  0  0
  -10.2401    7.8329  -16.8232 H   0  0  0  0  0  0  0  0  0  0  0  0
   -8.7045    7.8032  -17.0721 H   0  0  0  0  0  0  0  0  0  0  0  0
  -11.0285    7.7409  -19.2993 H   0  0  0  0  0  0  0  0  0  0  0  0
   -9.6311    7.6951  -19.9816 H   0  0  0  0  0  0  0  0  0  0  0  0
   -3.9416    2.3069  -15.3179 H   0  0  0  0  0  0  0  0  0  0  0  0
   -5.4876   -2.4609  -14.8475 H   0  0  0  0  0  0  0  0  0  0  0  0
   -7.6080   -6.4170  -14.9700 H   0  0  0  0  0  0  0  0  0  0  0  0
   -6.4540   -6.4390  -16.2850 H   0  0  0  0  0  0  0  0  0  0  0  0
  1  2  1  0
  2  3  1  0
  3  4  1  0
  4  5  2  0
  5  6  1  0
  6  7  2  0
  7  8  1  0
  8  9  2  0
  9 10  1  0
 10 11  1  0
 11 12  1  0
 12 13  2  0
 13 14  1  0
 14 15  1  0
 15 16  1  0
 16 17  2  0
 16 18  1  0
 18 19  1  0
 19 20  1  0
 20 21  1  0
 14 22  2  0
 22 23  1  0
 22 24  1  0
  9 25  1  0
 25 26  2  0
 26 27  1  0
 27 28  1  0
 28 29  1  0
 28 30  2  0
 27  3  2  0
 25  5  1  0
 24 11  2  0
 21 19  1  0
  1 31  1  0
  1 32  1  0
  1 33  1  0
  4 34  1  0
  7 35  1  0
  8 36  1  0
 12 37  1  0
 13 38  1  0
 15 39  1  0
 18 40  1  0
 19 41  1  0
 20 42  1  0
 20 43  1  0
 21 44  1  0
 21 45  1  0
 24 46  1  0
 26 47  1  0
 29 48  1  0
 29 49  1  0
M  END
>  <meeko>  (5) 
{"is_sidechain": false}

>  <vina_affinity_kcal_mol>  (5) 
-7.934

>  <pose_rank>  (5) 
5

$$$$

     RDKit          3D

 49 52  0  0  0  0  0  0  0  0999 V2000
   -7.1760    4.6060  -18.0190 C   0  0  0  0  0  0  0  0  0  0  0  0
   -8.5880    4.4180  -18.0380 O   0  0  0  0  0  0  0  0  0  0  0  0
   -9.1720    3.8020  -16.9580 C   0  0  0  0  0  0  0  0  0  0  0  0
   -8.8610    2.4910  -16.5610 C   0  0  0  0  0  0  0  0  0  0  0  0
   -9.4570    1.8780  -15.4660 C   0  0  0  0  0  0  0  0  0  0  0  0
   -9.1020    0.6180  -15.1600 N   0  0  0  0  0  0  0  0  0  0  0  0
   -9.6940    0.0210  -14.1020 C   0  0  0  0  0  0  0  0  0  0  0  0
  -10.6400    0.6320  -13.3090 C   0  0  0  0  0  0  0  0  0  0  0  0
  -10.9830    1.9440  -13.6170 C   0  0  0  0  0  0  0  0  0  0  0  0
  -11.9500    2.5980  -12.8840 O   0  0  0  0  0  0  0  0  0  0  0  0
  -12.5600    1.8940  -11.8680 C   0  0  0  0  0  0  0  0  0  0  0  0
  -13.9300    1.9390  -11.6130 C   0  0  0  0  0  0  0  0  0  0  0  0
  -14.4790    1.1710  -10.5780 C   0  0  0  0  0  0  0  0  0  0  0  0
  -13.6660    0.3430   -9.7980 C   0  0  0  0  0  0  0  0  0  0  0  0
  -14.1660   -0.4600   -8.7470 N   0  0  0  0  0  0  0  0  0  0  0  0
  -14.7530   -1.7040   -8.8370 C   0  0  0  0  0  0  0  0  0  0  0  0
  -15.0270   -2.3040   -9.8700 O   0  0  0  0  0  0  0  0  0  0  0  0
  -15.0310   -2.2090   -7.5760 N   0  0  0  0  0  0  0  0  0  0  0  0
  -15.6020   -3.5100   -7.4020 C   0  0  0  0  0  0  0  0  0  0  0  0
  -15.1690   -4.3900   -6.2630 C   0  0  0  0  0  0  0  0  0  0  0  0
  -16.5410   -3.7850   -6.2590 C   0  0  0  0  0  0  0  0  0  0  0  0
  -12.2910    0.2860  -10.0920 C   0  0  0  0  0  0  0  0  0  0  0  0
  -11.2290   -0.7380   -9.1820 Cl  0  0  0  0  0  0  0  0  0  0  0  0
  -11.7390    1.0520  -11.1210 C   0  0  0  0  0  0  0  0  0  0  0  0
  -10.4090    2.5970  -14.7250 C   0  0  0  0  0  0  0  0  0  0  0  0
  -10.7350    3.9140  -15.1120 C   0  0  0  0  0  0  0  0  0  0  0  0
  -10.1270    4.5260  -16.2220 C   0  0  0  0  0  0  0  0  0  0  0  0
  -10.5640    5.9260  -16.5200 C   0  0  0  0  0  0  0  0  0  0  0  0
   -9.6110    6.8860  -16.6850 N   0  0  0  0  0  0  0  0  0  0  0  0
  -11.7510    6.2220  -16.6160 O   0  0  0  0  0  0  0  0  0  0  0  0
   -6.8263    4.6526  -16.9771 H   0  0  0  0  0  0  0  0  0  0  0  0
   -6.6872    3.7650  -18.5326 H   0  0  0  0  0  0  0  0  0  0  0  0
   -6.9243    5.5456  -18.5326 H   0  0  0  0  0  0  0  0  0  0  0  0
   -8.1154    1.9269  -17.1406 H   0  0  0  0  0  0  0  0  0  0  0  0
   -9.4037   -1.0121  -13.8603 H   0  0  0  0  0  0  0  0  0  0  0  0
  -11.1061    0.1027  -12.4648 H   0  0  0  0  0  0  0  0  0  0  0  0
  -14.5814    2.5792  -12.2261 H   0  0  0  0  0  0  0  0  0  0  0  0
  -15.5594    1.2198  -10.3771 H   0  0  0  0  0  0  0  0  0  0  0  0
  -14.2360    0.0020   -7.8500 H   0  0  0  0  0  0  0  0  0  0  0  0
  -14.4570   -1.8570   -6.8240 H   0  0  0  0  0  0  0  0  0  0  0  0
  -15.6513   -3.6202   -8.4954 H   0  0  0  0  0  0  0  0  0  0  0  0
  -15.0458   -5.4717   -6.4203 H   0  0  0  0  0  0  0  0  0  0  0  0
  -14.3197   -4.3943   -5.5639 H   0  0  0  0  0  0  0  0  0  0  0  0
  -17.4237   -4.4229   -6.4138 H   0  0  0  0  0  0  0  0  0  0  0  0
  -17.1141   -3.1621   -5.5564 H   0  0  0  0  0  0  0  0  0  0  0  0
  -10.6628    0.9909  -11.3403 H   0  0  0  0  0  0  0  0  0  0  0  0
  -11.4823    4.4750  -14.5317 H   0  0  0  0  0  0  0  0  0  0  0  0
   -9.9050    7.8330  -16.8810 H   0  0  0  0  0  0  0  0  0  0  0  0
   -8.6240    6.6730  -16.6040 H   0  0  0  0  0  0  0  0  0  0  0  0
  1  2  1  0
  2  3  1  0
  3  4  1  0
  4  5  2  0
  5  6  1  0
  6  7  2  0
  7  8  1  0
  8  9  2  0
  9 10  1  0
 10 11  1  0
 11 12  1  0
 12 13  2  0
 13 14  1  0
 14 15  1  0
 15 16  1  0
 16 17  2  0
 16 18  1  0
 18 19  1  0
 19 20  1  0
 20 21  1  0
 14 22  2  0
 22 23  1  0
 22 24  1  0
  9 25  1  0
 25 26  2  0
 26 27  1  0
 27 28  1  0
 28 29  1  0
 28 30  2  0
 27  3  2  0
 25  5  1  0
 24 11  2  0
 21 19  1  0
  1 31  1  0
  1 32  1  0
  1 33  1  0
  4 34  1  0
  7 35  1  0
  8 36  1  0
 12 37  1  0
 13 38  1  0
 15 39  1  0
 18 40  1  0
 19 41  1  0
 20 42  1  0
 20 43  1  0
 21 44  1  0
 21 45  1  0
 24 46  1  0
 26 47  1  0
 29 48  1  0
 29 49  1  0
M  END
>  <meeko>  (6) 
{"is_sidechain": false}

>  <vina_affinity_kcal_mol>  (6) 
-7.882

>  <pose_rank>  (6) 
6

$$$$

     RDKit          3D

 49 52  0  0  0  0  0  0  0  0999 V2000
  -12.9010    0.2620   -6.2090 C   0  0  0  0  0  0  0  0  0  0  0  0
  -13.1810   -0.8190   -7.0930 O   0  0  0  0  0  0  0  0  0  0  0  0
  -12.3690   -0.9840   -8.1890 C   0  0  0  0  0  0  0  0  0  0  0  0
  -11.0150   -1.3470   -8.0930 C   0  0  0  0  0  0  0  0  0  0  0  0
  -10.2020   -1.5120   -9.2080 C   0  0  0  0  0  0  0  0  0  0  0  0
   -8.9160   -1.8570   -9.0230 N   0  0  0  0  0  0  0  0  0  0  0  0
   -8.1260   -2.0040  -10.1090 C   0  0  0  0  0  0  0  0  0  0  0  0
   -8.5650   -1.8290  -11.4040 C   0  0  0  0  0  0  0  0  0  0  0  0
   -9.9030   -1.4970  -11.5870 C   0  0  0  0  0  0  0  0  0  0  0  0
  -10.3940   -1.2720  -12.8560 O   0  0  0  0  0  0  0  0  0  0  0  0
  -10.1380   -0.0440  -13.4250 C   0  0  0  0  0  0  0  0  0  0  0  0
   -8.9480    0.2680  -14.0820 C   0  0  0  0  0  0  0  0  0  0  0  0
   -8.7740    1.5320  -14.6600 C   0  0  0  0  0  0  0  0  0  0  0  0
   -9.7910    2.4890  -14.6000 C   0  0  0  0  0  0  0  0  0  0  0  0
   -9.6750    3.7770  -15.1730 N   0  0  0  0  0  0  0  0  0  0  0  0
   -9.4450    4.0980  -16.4940 C   0  0  0  0  0  0  0  0  0  0  0  0
   -9.2100    3.3100  -17.4020 O   0  0  0  0  0  0  0  0  0  0  0  0
   -9.4860    5.4710  -16.6790 N   0  0  0  0  0  0  0  0  0  0  0  0
   -9.3210    6.0540  -17.9770 C   0  0  0  0  0  0  0  0  0  0  0  0
  -10.5180    6.4390  -18.8010 C   0  0  0  0  0  0  0  0  0  0  0  0
   -9.6430    7.5050  -18.2090 C   0  0  0  0  0  0  0  0  0  0  0  0
  -10.9980    2.1440  -13.9620 C   0  0  0  0  0  0  0  0  0  0  0  0
  -12.3100    3.2730  -13.8700 Cl  0  0  0  0  0  0  0  0  0  0  0  0
  -11.1740    0.8860  -13.3810 C   0  0  0  0  0  0  0  0  0  0  0  0
  -10.7560   -1.3100  -10.4820 C   0  0  0  0  0  0  0  0  0  0  0  0
  -12.1140   -0.9440  -10.5960 C   0  0  0  0  0  0  0  0  0  0  0  0
  -12.9280   -0.7780   -9.4620 C   0  0  0  0  0  0  0  0  0  0  0  0
  -14.3490   -0.3890   -9.7260 C   0  0  0  0  0  0  0  0  0  0  0  0
  -15.3410   -1.0700   -9.0870 N   0  0  0  0  0  0  0  0  0  0  0  0
  -14.6330    0.5200  -10.4990 O   0  0  0  0  0  0  0  0  0  0  0  0
  -12.9903   -0.0828   -5.1683 H   0  0  0  0  0  0  0  0  0  0  0  0
  -11.8788    0.6267   -6.3880 H   0  0  0  0  0  0  0  0  0  0  0  0
  -13.6177    1.0771   -6.3880 H   0  0  0  0  0  0  0  0  0  0  0  0
  -10.5810   -1.5070   -7.0950 H   0  0  0  0  0  0  0  0  0  0  0  0
   -7.0727   -2.2789   -9.9510 H   0  0  0  0  0  0  0  0  0  0  0  0
   -7.8835   -1.9474  -12.2593 H   0  0  0  0  0  0  0  0  0  0  0  0
   -8.1443   -0.4802  -14.1464 H   0  0  0  0  0  0  0  0  0  0  0  0
   -7.8277    1.7739  -15.1661 H   0  0  0  0  0  0  0  0  0  0  0  0
   -9.6010    4.5360  -14.5100 H   0  0  0  0  0  0  0  0  0  0  0  0
  -10.0370    5.9900  -16.0110 H   0  0  0  0  0  0  0  0  0  0  0  0
   -8.4390    5.4164  -18.1367 H   0  0  0  0  0  0  0  0  0  0  0  0
  -10.5160    6.2667  -19.8874 H   0  0  0  0  0  0  0  0  0  0  0  0
  -11.5928    6.2074  -18.7659 H   0  0  0  0  0  0  0  0  0  0  0  0
   -8.9997    8.1135  -18.8615 H   0  0  0  0  0  0  0  0  0  0  0  0
   -9.8109    8.3776  -17.5606 H   0  0  0  0  0  0  0  0  0  0  0  0
  -12.1255    0.6312  -12.8914 H   0  0  0  0  0  0  0  0  0  0  0  0
  -12.5456   -0.7849  -11.5952 H   0  0  0  0  0  0  0  0  0  0  0  0
  -16.3010   -0.8120   -9.2680 H   0  0  0  0  0  0  0  0  0  0  0  0
  -15.1370   -1.8290   -8.4490 H   0  0  0  0  0  0  0  0  0  0  0  0
  1  2  1  0
  2  3  1  0
  3  4  1  0
  4  5  2  0
  5  6  1  0
  6  7  2  0
  7  8  1  0
  8  9  2  0
  9 10  1  0
 10 11  1  0
 11 12  1  0
 12 13  2  0
 13 14  1  0
 14 15  1  0
 15 16  1  0
 16 17  2  0
 16 18  1  0
 18 19  1  0
 19 20  1  0
 20 21  1  0
 14 22  2  0
 22 23  1  0
 22 24  1  0
  9 25  1  0
 25 26  2  0
 26 27  1  0
 27 28  1  0
 28 29  1  0
 28 30  2  0
 27  3  2  0
 25  5  1  0
 24 11  2  0
 21 19  1  0
  1 31  1  0
  1 32  1  0
  1 33  1  0
  4 34  1  0
  7 35  1  0
  8 36  1  0
 12 37  1  0
 13 38  1  0
 15 39  1  0
 18 40  1  0
 19 41  1  0
 20 42  1  0
 20 43  1  0
 21 44  1  0
 21 45  1  0
 24 46  1  0
 26 47  1  0
 29 48  1  0
 29 49  1  0
M  END
>  <meeko>  (7) 
{"is_sidechain": false}

>  <vina_affinity_kcal_mol>  (7) 
-7.828

>  <pose_rank>  (7) 
7

$$$$

     RDKit          3D

 49 52  0  0  0  0  0  0  0  0999 V2000
   -8.1380    5.8670  -19.2060 C   0  0  0  0  0  0  0  0  0  0  0  0
   -7.7100    4.7850  -18.3850 O   0  0  0  0  0  0  0  0  0  0  0  0
   -8.5520    4.3590  -17.3870 C   0  0  0  0  0  0  0  0  0  0  0  0
   -9.6630    5.1010  -16.9520 C   0  0  0  0  0  0  0  0  0  0  0  0
  -10.5090    4.6600  -15.9410 C   0  0  0  0  0  0  0  0  0  0  0  0
  -11.5480    5.4360  -15.5860 N   0  0  0  0  0  0  0  0  0  0  0  0
  -12.3600    5.0100  -14.5940 C   0  0  0  0  0  0  0  0  0  0  0  0
  -12.1910    3.8170  -13.9250 C   0  0  0  0  0  0  0  0  0  0  0  0
  -11.1300    3.0090  -14.3170 C   0  0  0  0  0  0  0  0  0  0  0  0
  -10.8850    1.8200  -13.6620 O   0  0  0  0  0  0  0  0  0  0  0  0
  -11.6860    1.5150  -12.5830 C   0  0  0  0  0  0  0  0  0  0  0  0
  -12.9880    1.9920  -12.4290 C   0  0  0  0  0  0  0  0  0  0  0  0
  -13.7490    1.6140  -11.3170 C   0  0  0  0  0  0  0  0  0  0  0  0
  -13.2230    0.7450  -10.3560 C   0  0  0  0  0  0  0  0  0  0  0  0
  -13.9490    0.3220   -9.2180 N   0  0  0  0  0  0  0  0  0  0  0  0
  -14.6490   -0.8530   -9.0490 C   0  0  0  0  0  0  0  0  0  0  0  0
  -14.8400   -1.7130   -9.9010 O   0  0  0  0  0  0  0  0  0  0  0  0
  -15.1520   -0.9440   -7.7600 N   0  0  0  0  0  0  0  0  0  0  0  0
  -15.8810   -2.0970   -7.3230 C   0  0  0  0  0  0  0  0  0  0  0  0
  -16.2100   -2.2870   -5.8690 C   0  0  0  0  0  0  0  0  0  0  0  0
  -17.3020   -1.9660   -6.8460 C   0  0  0  0  0  0  0  0  0  0  0  0
  -11.9200    0.2470  -10.5450 C   0  0  0  0  0  0  0  0  0  0  0  0
  -11.2130   -0.8520   -9.4060 Cl  0  0  0  0  0  0  0  0  0  0  0  0
  -11.1560    0.6250  -11.6520 C   0  0  0  0  0  0  0  0  0  0  0  0
  -10.2430    3.4240  -15.3300 C   0  0  0  0  0  0  0  0  0  0  0  0
   -9.1300    2.6690  -15.7530 C   0  0  0  0  0  0  0  0  0  0  0  0
   -8.2800    3.1230  -16.7760 C   0  0  0  0  0  0  0  0  0  0  0  0
   -7.1360    2.2220  -17.1270 C   0  0  0  0  0  0  0  0  0  0  0  0
   -5.9250    2.7820  -17.4030 N   0  0  0  0  0  0  0  0  0  0  0  0
   -7.2700    1.0030  -17.1710 O   0  0  0  0  0  0  0  0  0  0  0  0
   -8.4681    6.7016  -18.5700 H   0  0  0  0  0  0  0  0  0  0  0  0
   -7.3031    6.1980  -19.8411 H   0  0  0  0  0  0  0  0  0  0  0  0
   -8.9734    5.5372  -19.8411 H   0  0  0  0  0  0  0  0  0  0  0  0
   -9.8716    6.0693  -17.4304 H   0  0  0  0  0  0  0  0  0  0  0  0
  -13.2045    5.6522  -14.3035 H   0  0  0  0  0  0  0  0  0  0  0  0
  -12.8690    3.5160  -13.1128 H   0  0  0  0  0  0  0  0  0  0  0  0
  -13.4176    2.6671  -13.1838 H   0  0  0  0  0  0  0  0  0  0  0  0
  -14.7706    2.0042  -11.1978 H   0  0  0  0  0  0  0  0  0  0  0  0
  -14.0920    1.0320   -8.5130 H   0  0  0  0  0  0  0  0  0  0  0  0
  -14.6540   -0.4220   -7.0540 H   0  0  0  0  0  0  0  0  0  0  0  0
  -15.3686   -2.6964   -8.0899 H   0  0  0  0  0  0  0  0  0  0  0  0
  -16.1523   -3.2890   -5.4188 H   0  0  0  0  0  0  0  0  0  0  0  0
  -15.8545   -1.8429   -4.9275 H   0  0  0  0  0  0  0  0  0  0  0  0
  -18.0444   -2.7327   -7.1124 H   0  0  0  0  0  0  0  0  0  0  0  0
  -18.0779   -1.1896   -6.9176 H   0  0  0  0  0  0  0  0  0  0  0  0
  -10.1415    0.2219  -11.7875 H   0  0  0  0  0  0  0  0  0  0  0  0
   -8.9221    1.7022  -15.2712 H   0  0  0  0  0  0  0  0  0  0  0  0
   -5.1540    2.1760  -17.6450 H   0  0  0  0  0  0  0  0  0  0  0  0
   -5.7880    3.7850  -17.3800 H   0  0  0  0  0  0  0  0  0  0  0  0
  1  2  1  0
  2  3  1  0
  3  4  1  0
  4  5  2  0
  5  6  1  0
  6  7  2  0
  7  8  1  0
  8  9  2  0
  9 10  1  0
 10 11  1  0
 11 12  1  0
 12 13  2  0
 13 14  1  0
 14 15  1  0
 15 16  1  0
 16 17  2  0
 16 18  1  0
 18 19  1  0
 19 20  1  0
 20 21  1  0
 14 22  2  0
 22 23  1  0
 22 24  1  0
  9 25  1  0
 25 26  2  0
 26 27  1  0
 27 28  1  0
 28 29  1  0
 28 30  2  0
 27  3  2  0
 25  5  1  0
 24 11  2  0
 21 19  1  0
  1 31  1  0
  1 32  1  0
  1 33  1  0
  4 34  1  0
  7 35  1  0
  8 36  1  0
 12 37  1  0
 13 38  1  0
 15 39  1  0
 18 40  1  0
 19 41  1  0
 20 42  1  0
 20 43  1  0
 21 44  1  0
 21 45  1  0
 24 46  1  0
 26 47  1  0
 29 48  1  0
 29 49  1  0
M  END
>  <meeko>  (8) 
{"is_sidechain": false}

>  <vina_affinity_kcal_mol>  (8) 
-7.812

>  <pose_rank>  (8) 
8

$$$$

     RDKit          3D

 49 52  0  0  0  0  0  0  0  0999 V2000
  -10.3380   -0.8150   -4.0040 C   0  0  0  0  0  0  0  0  0  0  0  0
  -10.3100    0.3530   -4.8200 O   0  0  0  0  0  0  0  0  0  0  0  0
  -11.0540    0.3520   -5.9740 C   0  0  0  0  0  0  0  0  0  0  0  0
  -12.4160    0.6980   -6.0090 C   0  0  0  0  0  0  0  0  0  0  0  0
  -13.1600    0.6950   -7.1830 C   0  0  0  0  0  0  0  0  0  0  0  0
  -14.4590    1.0370   -7.1240 N   0  0  0  0  0  0  0  0  0  0  0  0
  -15.1820    1.0200   -8.2650 C   0  0  0  0  0  0  0  0  0  0  0  0
  -14.6630    0.6800   -9.4950 C   0  0  0  0  0  0  0  0  0  0  0  0
  -13.3120    0.3530   -9.5510 C   0  0  0  0  0  0  0  0  0  0  0  0
  -12.7410   -0.0320  -10.7460 O   0  0  0  0  0  0  0  0  0  0  0  0
  -12.2860    0.9650  -11.5810 C   0  0  0  0  0  0  0  0  0  0  0  0
  -10.9660    1.0610  -12.0200 C   0  0  0  0  0  0  0  0  0  0  0  0
  -10.5860    2.0890  -12.8920 C   0  0  0  0  0  0  0  0  0  0  0  0
  -11.5240    3.0230  -13.3420 C   0  0  0  0  0  0  0  0  0  0  0  0
  -11.2000    4.0760  -14.2290 N   0  0  0  0  0  0  0  0  0  0  0  0
  -10.5050    3.9990  -15.4170 C   0  0  0  0  0  0  0  0  0  0  0  0
   -9.9620    3.0020  -15.8760 O   0  0  0  0  0  0  0  0  0  0  0  0
  -10.4680    5.2350  -16.0450 N   0  0  0  0  0  0  0  0  0  0  0  0
   -9.8400    5.4040  -17.3210 C   0  0  0  0  0  0  0  0  0  0  0  0
  -10.3630    6.4170  -18.3020 C   0  0  0  0  0  0  0  0  0  0  0  0
   -9.0460    6.6460  -17.6210 C   0  0  0  0  0  0  0  0  0  0  0  0
  -12.8590    2.8910  -12.9140 C   0  0  0  0  0  0  0  0  0  0  0  0
  -14.0790    3.9990  -13.4530 Cl  0  0  0  0  0  0  0  0  0  0  0  0
  -13.2410    1.8690  -12.0430 C   0  0  0  0  0  0  0  0  0  0  0  0
  -12.5260    0.3340   -8.3820 C   0  0  0  0  0  0  0  0  0  0  0  0
  -11.1600   -0.0180   -8.3640 C   0  0  0  0  0  0  0  0  0  0  0  0
  -10.4160   -0.0130   -7.1720 C   0  0  0  0  0  0  0  0  0  0  0  0
   -8.9760   -0.4070   -7.2950 C   0  0  0  0  0  0  0  0  0  0  0  0
   -8.0210    0.4970   -6.9380 N   0  0  0  0  0  0  0  0  0  0  0  0
   -8.6470   -1.5130   -7.7090 O   0  0  0  0  0  0  0  0  0  0  0  0
  -10.3310   -0.5219   -2.9438 H   0  0  0  0  0  0  0  0  0  0  0  0
  -11.2502   -1.3908   -4.2192 H   0  0  0  0  0  0  0  0  0  0  0  0
   -9.4544   -1.4339   -4.2192 H   0  0  0  0  0  0  0  0  0  0  0  0
  -12.9128    0.9825   -5.0697 H   0  0  0  0  0  0  0  0  0  0  0  0
  -16.2460    1.2933   -8.2088 H   0  0  0  0  0  0  0  0  0  0  0  0
  -15.2921    0.6676  -10.3973 H   0  0  0  0  0  0  0  0  0  0  0  0
  -10.2206    0.3268  -11.6803 H   0  0  0  0  0  0  0  0  0  0  0  0
   -9.5404    2.1622  -13.2257 H   0  0  0  0  0  0  0  0  0  0  0  0
  -11.3670    5.0060  -13.8690 H   0  0  0  0  0  0  0  0  0  0  0  0
  -11.2200    5.8680  -15.8170 H   0  0  0  0  0  0  0  0  0  0  0  0
   -9.6378    4.3232  -17.3517 H   0  0  0  0  0  0  0  0  0  0  0  0
  -10.3927    6.1784  -19.3754 H   0  0  0  0  0  0  0  0  0  0  0  0
  -11.2958    6.9912  -18.4035 H   0  0  0  0  0  0  0  0  0  0  0  0
   -8.1105    6.5751  -18.1952 H   0  0  0  0  0  0  0  0  0  0  0  0
   -8.6140    7.4573  -17.0168 H   0  0  0  0  0  0  0  0  0  0  0  0
  -14.2895    1.7777  -11.7232 H   0  0  0  0  0  0  0  0  0  0  0  0
  -10.6660   -0.3029   -9.3046 H   0  0  0  0  0  0  0  0  0  0  0  0
   -7.0490    0.2340   -7.0260 H   0  0  0  0  0  0  0  0  0  0  0  0
   -8.2640    1.4200   -6.6000 H   0  0  0  0  0  0  0  0  0  0  0  0
  1  2  1  0
  2  3  1  0
  3  4  1  0
  4  5  2  0
  5  6  1  0
  6  7  2  0
  7  8  1  0
  8  9  2  0
  9 10  1  0
 10 11  1  0
 11 12  1  0
 12 13  2  0
 13 14  1  0
 14 15  1  0
 15 16  1  0
 16 17  2  0
 16 18  1  0
 18 19  1  0
 19 20  1  0
 20 21  1  0
 14 22  2  0
 22 23  1  0
 22 24  1  0
  9 25  1  0
 25 26  2  0
 26 27  1  0
 27 28  1  0
 28 29  1  0
 28 30  2  0
 27  3  2  0
 25  5  1  0
 24 11  2  0
 21 19  1  0
  1 31  1  0
  1 32  1  0
  1 33  1  0
  4 34  1  0
  7 35  1  0
  8 36  1  0
 12 37  1  0
 13 38  1  0
 15 39  1  0
 18 40  1  0
 19 41  1  0
 20 42  1  0
 20 43  1  0
 21 44  1  0
 21 45  1  0
 24 46  1  0
 26 47  1  0
 29 48  1  0
 29 49  1  0
M  END
>  <meeko>  (9) 
{"is_sidechain": false}

>  <vina_affinity_kcal_mol>  (9) 
-7.79

>  <pose_rank>  (9) 
9

$$$$

     RDKit          3D

 49 52  0  0  0  0  0  0  0  0999 V2000
  -13.8960   -1.0790   -8.8790 C   0  0  0  0  0  0  0  0  0  0  0  0
  -12.4870   -0.8760   -8.9270 O   0  0  0  0  0  0  0  0  0  0  0  0
  -11.9260   -0.5240  -10.1300 C   0  0  0  0  0  0  0  0  0  0  0  0
  -12.1220    0.7310  -10.7310 C   0  0  0  0  0  0  0  0  0  0  0  0
  -11.5480    1.0770  -11.9480 C   0  0  0  0  0  0  0  0  0  0  0  0
  -11.7920    2.2990  -12.4520 N   0  0  0  0  0  0  0  0  0  0  0  0
  -11.2440    2.6270  -13.6420 C   0  0  0  0  0  0  0  0  0  0  0  0
  -10.4360    1.7820  -14.3710 C   0  0  0  0  0  0  0  0  0  0  0  0
  -10.1670    0.5290  -13.8310 C   0  0  0  0  0  0  0  0  0  0  0  0
   -9.3960   -0.3770  -14.5290 O   0  0  0  0  0  0  0  0  0  0  0  0
   -8.1890    0.0670  -15.0210 C   0  0  0  0  0  0  0  0  0  0  0  0
   -7.0140    0.0970  -14.2700 C   0  0  0  0  0  0  0  0  0  0  0  0
   -5.8180    0.5360  -14.8510 C   0  0  0  0  0  0  0  0  0  0  0  0
   -5.7810    0.9350  -16.1910 C   0  0  0  0  0  0  0  0  0  0  0  0
   -4.6020    1.3790  -16.8320 N   0  0  0  0  0  0  0  0  0  0  0  0
   -3.7170    0.6370  -17.5850 C   0  0  0  0  0  0  0  0  0  0  0  0
   -3.7530   -0.5750  -17.7610 O   0  0  0  0  0  0  0  0  0  0  0  0
   -2.7290    1.4480  -18.1220 N   0  0  0  0  0  0  0  0  0  0  0  0
   -1.7150    0.9170  -18.9830 C   0  0  0  0  0  0  0  0  0  0  0  0
   -2.0030    0.6550  -20.4350 C   0  0  0  0  0  0  0  0  0  0  0  0
   -1.0880    1.7780  -20.0450 C   0  0  0  0  0  0  0  0  0  0  0  0
   -6.9700    0.8670  -16.9420 C   0  0  0  0  0  0  0  0  0  0  0  0
   -6.9930    1.3230  -18.6140 Cl  0  0  0  0  0  0  0  0  0  0  0  0
   -8.1660    0.4330  -16.3650 C   0  0  0  0  0  0  0  0  0  0  0  0
  -10.7380    0.1360  -12.6040 C   0  0  0  0  0  0  0  0  0  0  0  0
  -10.5330   -1.1290  -12.0160 C   0  0  0  0  0  0  0  0  0  0  0  0
  -11.1180   -1.4710  -10.7840 C   0  0  0  0  0  0  0  0  0  0  0  0
  -10.8170   -2.8460  -10.2730 C   0  0  0  0  0  0  0  0  0  0  0  0
  -11.8320   -3.7520  -10.2020 N   0  0  0  0  0  0  0  0  0  0  0  0
   -9.6860   -3.1660   -9.9210 O   0  0  0  0  0  0  0  0  0  0  0  0
  -14.2241   -1.1263   -7.8301 H   0  0  0  0  0  0  0  0  0  0  0  0
  -14.4041   -0.2448   -9.3849 H   0  0  0  0  0  0  0  0  0  0  0  0
  -14.1479   -2.0227   -9.3849 H   0  0  0  0  0  0  0  0  0  0  0  0
  -12.7554    1.4692  -10.2172 H   0  0  0  0  0  0  0  0  0  0  0  0
  -11.4547    3.6255  -14.0526 H   0  0  0  0  0  0  0  0  0  0  0  0
  -10.0198    2.0867  -15.3426 H   0  0  0  0  0  0  0  0  0  0  0  0
   -7.0269   -0.2251  -13.2183 H   0  0  0  0  0  0  0  0  0  0  0  0
   -4.8987    0.5674  -14.2477 H   0  0  0  0  0  0  0  0  0  0  0  0
   -4.2990    2.3100  -16.5780 H   0  0  0  0  0  0  0  0  0  0  0  0
   -2.9750    2.4180  -18.2490 H   0  0  0  0  0  0  0  0  0  0  0  0
   -1.3368    0.3145  -18.1440 H   0  0  0  0  0  0  0  0  0  0  0  0
   -1.5949   -0.2423  -20.9232 H   0  0  0  0  0  0  0  0  0  0  0  0
   -2.9155    0.5716  -21.0436 H   0  0  0  0  0  0  0  0  0  0  0  0
   -0.0093    1.7038  -20.2471 H   0  0  0  0  0  0  0  0  0  0  0  0
   -1.0521    2.8583  -20.2492 H   0  0  0  0  0  0  0  0  0  0  0  0
   -9.0842    0.3806  -16.9684 H   0  0  0  0  0  0  0  0  0  0  0  0
   -9.9006   -1.8656  -12.5332 H   0  0  0  0  0  0  0  0  0  0  0  0
  -11.6310   -4.6780   -9.8530 H   0  0  0  0  0  0  0  0  0  0  0  0
  -12.7760   -3.5130  -10.4800 H   0  0  0  0  0  0  0  0  0  0  0  0
  1  2  1  0
  2  3  1  0
  3  4  1  0
  4  5  2  0
  5  6  1  0
  6  7  2  0
  7  8  1  0
  8  9  2  0
  9 10  1  0
 10 11  1  0
 11 12  1  0
 12 13  2  0
 13 14  1  0
 14 15  1  0
 15 16  1  0
 16 17  2  0
 16 18  1  0
 18 19  1  0
 19 20  1  0
 20 21  1  0
 14 22  2  0
 22 23  1  0
 22 24  1  0
  9 25  1  0
 25 26  2  0
 26 27  1  0
 27 28  1  0
 28 29  1  0
 28 30  2  0
 27  3  2  0
 25  5  1  0
 24 11  2  0
 21 19  1  0
  1 31  1  0
  1 32  1  0
  1 33  1  0
  4 34  1  0
  7 35  1  0
  8 36  1  0
 12 37  1  0
 13 38  1  0
 15 39  1  0
 18 40  1  0
 19 41  1  0
 20 42  1  0
 20 43  1  0
 21 44  1  0
 21 45  1  0
 24 46  1  0
 26 47  1  0
 29 48  1  0
 29 49  1  0
M  END
>  <meeko>  (10) 
{"is_sidechain": false}

>  <vina_affinity_kcal_mol>  (10) 
-7.67

>  <pose_rank>  (10) 
10

$$$$
