
     RDKit          3D

 56 58  0  0  0  0  0  0  0  0999 V2000
  -14.1050    1.6420  -11.0170 C   0  0  0  0  0  0  0  0  0  0  0  0
  -14.4700    0.8360   -9.7750 C   0  0  0  0  0  0  0  0  0  0  0  0
  -13.9610   -0.5470   -9.7860 N   0  0  0  0  0  0  0  0  0  0  0  0
  -14.8500   -1.5190   -9.1330 C   0  0  0  0  0  0  0  0  0  0  0  0
  -14.6240   -2.9870   -9.4800 C   0  0  0  0  0  0  0  0  0  0  0  0
  -12.5710   -0.5670   -9.2810 C   0  0  0  0  0  0  0  0  0  0  0  0
  -11.5670   -1.3400  -10.1610 C   0  0  0  0  0  0  0  0  0  0  0  0
  -10.7530   -0.4570  -10.9750 N   0  0  0  0  0  0  0  0  0  0  0  0
  -10.4210   -0.7640  -12.2750 C   0  0  0  0  0  0  0  0  0  0  0  0
  -10.7470   -1.8160  -12.8160 O   0  0  0  0  0  0  0  0  0  0  0  0
   -9.7050    0.3000  -12.9890 C   0  0  0  0  0  0  0  0  0  0  0  0
   -8.3320    0.4380  -13.1470 C   0  0  0  0  0  0  0  0  0  0  0  0
   -7.1830   -0.4050  -12.7210 C   0  0  0  0  0  0  0  0  0  0  0  0
   -8.1090    1.5790  -13.8800 N   0  0  0  0  0  0  0  0  0  0  0  0
   -9.2890    2.1690  -14.2520 C   0  0  0  0  0  0  0  0  0  0  0  0
   -9.3340    3.3410  -15.0610 C   0  0  0  0  0  0  0  0  0  0  0  0
   -8.7580    3.5880  -16.2490 C   0  0  0  0  0  0  0  0  0  0  0  0
   -7.8770    2.7290  -17.1260 C   0  0  0  0  0  0  0  0  0  0  0  0
   -7.5030    1.5870  -16.9350 O   0  0  0  0  0  0  0  0  0  0  0  0
   -7.5730    3.5110  -18.2270 N   0  0  0  0  0  0  0  0  0  0  0  0
   -8.1650    4.7640  -18.1410 C   0  0  0  0  0  0  0  0  0  0  0  0
   -8.0710    5.7860  -19.0670 C   0  0  0  0  0  0  0  0  0  0  0  0
   -8.7520    6.9700  -18.7820 C   0  0  0  0  0  0  0  0  0  0  0  0
   -9.4940    7.0910  -17.5970 C   0  0  0  0  0  0  0  0  0  0  0  0
  -10.1370    8.2380  -17.3490 F   0  0  0  0  0  0  0  0  0  0  0  0
   -9.5810    6.0500  -16.6720 C   0  0  0  0  0  0  0  0  0  0  0  0
   -8.9040    4.8770  -16.9580 C   0  0  0  0  0  0  0  0  0  0  0  0
  -10.3100    1.3950  -13.7070 C   0  0  0  0  0  0  0  0  0  0  0  0
  -11.7800    1.6260  -13.8280 C   0  0  0  0  0  0  0  0  0  0  0  0
  -13.6688    2.6052  -10.7139 H   0  0  0  0  0  0  0  0  0  0  0  0
  -13.3733    1.0806  -11.6165 H   0  0  0  0  0  0  0  0  0  0  0  0
  -15.0096    1.8216  -11.6165 H   0  0  0  0  0  0  0  0  0  0  0  0
  -14.0556    1.3500   -8.8952 H   0  0  0  0  0  0  0  0  0  0  0  0
  -15.5678    0.7705   -9.7498 H   0  0  0  0  0  0  0  0  0  0  0  0
  -14.7243   -1.4093   -8.0457 H   0  0  0  0  0  0  0  0  0  0  0  0
  -15.8594   -1.2844   -9.5018 H   0  0  0  0  0  0  0  0  0  0  0  0
  -14.5338   -3.5731   -8.5535 H   0  0  0  0  0  0  0  0  0  0  0  0
  -15.4753   -3.3600  -10.0684 H   0  0  0  0  0  0  0  0  0  0  0  0
  -13.6999   -3.0866  -10.0684 H   0  0  0  0  0  0  0  0  0  0  0  0
  -12.2228    0.4733   -9.1998 H   0  0  0  0  0  0  0  0  0  0  0  0
  -12.6027   -1.0944   -8.3162 H   0  0  0  0  0  0  0  0  0  0  0  0
  -10.9057   -1.9292   -9.5087 H   0  0  0  0  0  0  0  0  0  0  0  0
  -12.1430   -1.9865  -10.8394 H   0  0  0  0  0  0  0  0  0  0  0  0
  -10.6370    0.5010  -10.6810 H   0  0  0  0  0  0  0  0  0  0  0  0
   -7.1392   -0.4371  -11.6223 H   0  0  0  0  0  0  0  0  0  0  0  0
   -7.3113   -1.4248  -13.1128 H   0  0  0  0  0  0  0  0  0  0  0  0
   -6.2487    0.0235  -13.1128 H   0  0  0  0  0  0  0  0  0  0  0  0
   -7.1840    1.9160  -14.1320 H   0  0  0  0  0  0  0  0  0  0  0  0
   -9.9308    4.1689  -14.6505 H   0  0  0  0  0  0  0  0  0  0  0  0
   -6.9940    3.1820  -18.9850 H   0  0  0  0  0  0  0  0  0  0  0  0
   -7.4838    5.6707  -19.9900 H   0  0  0  0  0  0  0  0  0  0  0  0
   -8.7071    7.8117  -19.4888 H   0  0  0  0  0  0  0  0  0  0  0  0
  -10.1673    6.1577  -15.7475 H   0  0  0  0  0  0  0  0  0  0  0  0
  -12.2241    1.6958  -12.8240 H   0  0  0  0  0  0  0  0  0  0  0  0
  -11.9601    2.5635  -14.3746 H   0  0  0  0  0  0  0  0  0  0  0  0
  -12.2389    0.7890  -14.3746 H   0  0  0  0  0  0  0  0  0  0  0  0
  1  2  1  0
  2  3  1  0
  3  4  1  0
  4  5  1  0
  3  6  1  0
  6  7  1  0
  7  8  1  0
  8  9  1  0
  9 10  2  0
  9 11  1  0
 11 12  2  0
 12 13  1  0
 12 14  1  0
 14 15  1  0
 15 16  1  0
 16 17  2  0
 17 18  1  0
 18 19  2  0
 18 20  1  0
 20 21  1  0
 21 22  1  0
 22 23  2  0
 23 24  1  0
 24 25  1  0
 24 26  2  0
 26 27  1  0
 15 28  2  0
 28 29  1  0
 28 11  1  0
 27 17  1  0
 27 21  2  0
  1 30  1  0
  1 31  1  0
  1 32  1  0
  2 33  1  0
  2 34  1  0
  4 35  1  0
  4 36  1  0
  5 37  1  0
  5 38  1  0
  5 39  1  0
  6 40  1  0
  6 41  1  0
  7 42  1  0
  7 43  1  0
  8 44  1  0
 13 45  1  0
 13 46  1  0
 13 47  1  0
 14 48  1  0
 16 49  1  0
 20 50  1  0
 22 51  1  0
 23 52  1  0
 26 53  1  0
 29 54  1  0
 29 55  1  0
 29 56  1  0
M  END
>  <meeko>  (1) 
{"is_sidechain": false}

>  <vina_affinity_kcal_mol>  (1) 
-8.139

>  <pose_rank>  (1) 
1

$$$$

     RDKit          3D

 56 58  0  0  0  0  0  0  0  0999 V2000
   -8.7420   10.0030  -19.6570 C   0  0  0  0  0  0  0  0  0  0  0  0
   -9.4880    8.7620  -19.1760 C   0  0  0  0  0  0  0  0  0  0  0  0
   -9.0330    7.5090  -19.8030 N   0  0  0  0  0  0  0  0  0  0  0  0
  -10.0400    6.8680  -20.6610 C   0  0  0  0  0  0  0  0  0  0  0  0
  -10.2270    7.4650  -22.0530 C   0  0  0  0  0  0  0  0  0  0  0  0
   -8.4650    6.6150  -18.7700 C   0  0  0  0  0  0  0  0  0  0  0  0
   -8.8670    5.1320  -18.8960 C   0  0  0  0  0  0  0  0  0  0  0  0
   -9.6030    4.6600  -17.7380 N   0  0  0  0  0  0  0  0  0  0  0  0
   -8.9790    4.0260  -16.6860 C   0  0  0  0  0  0  0  0  0  0  0  0
   -7.7780    3.7760  -16.6770 O   0  0  0  0  0  0  0  0  0  0  0  0
   -9.8540    3.7360  -15.5440 C   0  0  0  0  0  0  0  0  0  0  0  0
  -10.9780    4.4440  -15.1370 C   0  0  0  0  0  0  0  0  0  0  0  0
  -11.6720    5.6340  -15.6980 C   0  0  0  0  0  0  0  0  0  0  0  0
  -11.4830    3.8190  -14.0230 N   0  0  0  0  0  0  0  0  0  0  0  0
  -10.7620    2.6970  -13.7120 C   0  0  0  0  0  0  0  0  0  0  0  0
  -11.1100    1.8410  -12.6270 C   0  0  0  0  0  0  0  0  0  0  0  0
  -12.2890    1.6800  -12.0040 C   0  0  0  0  0  0  0  0  0  0  0  0
  -13.6330    2.3340  -12.2310 C   0  0  0  0  0  0  0  0  0  0  0  0
  -13.9370    3.1670  -13.0640 O   0  0  0  0  0  0  0  0  0  0  0  0
  -14.4780    1.7830  -11.2840 N   0  0  0  0  0  0  0  0  0  0  0  0
  -13.8190    0.8540  -10.4900 C   0  0  0  0  0  0  0  0  0  0  0  0
  -14.3650    0.1180   -9.4550 C   0  0  0  0  0  0  0  0  0  0  0  0
  -13.5180   -0.7660   -8.7850 C   0  0  0  0  0  0  0  0  0  0  0  0
  -12.1740   -0.8830   -9.1680 C   0  0  0  0  0  0  0  0  0  0  0  0
  -11.3840   -1.7390   -8.5080 F   0  0  0  0  0  0  0  0  0  0  0  0
  -11.6370   -0.1340  -10.2160 C   0  0  0  0  0  0  0  0  0  0  0  0
  -12.4790    0.7420  -10.8780 C   0  0  0  0  0  0  0  0  0  0  0  0
   -9.7300    2.6160  -14.6440 C   0  0  0  0  0  0  0  0  0  0  0  0
   -8.6690    1.5690  -14.7280 C   0  0  0  0  0  0  0  0  0  0  0  0
   -8.3943   10.5814  -18.7884 H   0  0  0  0  0  0  0  0  0  0  0  0
   -7.8772    9.6984  -20.2647 H   0  0  0  0  0  0  0  0  0  0  0  0
   -9.4167   10.6239  -20.2647 H   0  0  0  0  0  0  0  0  0  0  0  0
   -9.3492    8.6748  -18.0883 H   0  0  0  0  0  0  0  0  0  0  0  0
  -10.5426    8.8949  -19.4590 H   0  0  0  0  0  0  0  0  0  0  0  0
   -9.7512    5.8139  -20.7853 H   0  0  0  0  0  0  0  0  0  0  0  0
  -11.0005    7.0206  -20.1470 H   0  0  0  0  0  0  0  0  0  0  0  0
  -10.5547    8.5111  -21.9623 H   0  0  0  0  0  0  0  0  0  0  0  0
   -9.2735    7.4256  -22.6000 H   0  0  0  0  0  0  0  0  0  0  0  0
  -10.9876    6.8886  -22.6000 H   0  0  0  0  0  0  0  0  0  0  0  0
   -7.3685    6.6772  -18.8310 H   0  0  0  0  0  0  0  0  0  0  0  0
   -8.8705    6.9617  -17.8081 H   0  0  0  0  0  0  0  0  0  0  0  0
   -9.4976    5.0112  -19.7891 H   0  0  0  0  0  0  0  0  0  0  0  0
   -7.9439    4.5387  -18.9724 H   0  0  0  0  0  0  0  0  0  0  0  0
  -10.5330    5.0170  -17.5770 H   0  0  0  0  0  0  0  0  0  0  0  0
  -12.0401    6.2652  -14.8758 H   0  0  0  0  0  0  0  0  0  0  0  0
  -10.9687    6.2109  -16.3165 H   0  0  0  0  0  0  0  0  0  0  0  0
  -12.5204    5.3059  -16.3165 H   0  0  0  0  0  0  0  0  0  0  0  0
  -12.3050    4.1420  -13.5190 H   0  0  0  0  0  0  0  0  0  0  0  0
  -10.2892    1.2182  -12.2416 H   0  0  0  0  0  0  0  0  0  0  0  0
  -15.4510    2.0410  -11.2080 H   0  0  0  0  0  0  0  0  0  0  0  0
  -15.4225    0.2246   -9.1715 H   0  0  0  0  0  0  0  0  0  0  0  0
  -13.9059   -1.3730   -7.9537 H   0  0  0  0  0  0  0  0  0  0  0  0
  -10.5808   -0.2365  -10.5058 H   0  0  0  0  0  0  0  0  0  0  0  0
   -8.3669    1.2709  -13.7132 H   0  0  0  0  0  0  0  0  0  0  0  0
   -9.0600    0.6931  -15.2664 H   0  0  0  0  0  0  0  0  0  0  0  0
   -7.7983    1.9716  -15.2664 H   0  0  0  0  0  0  0  0  0  0  0  0
  1  2  1  0
  2  3  1  0
  3  4  1  0
  4  5  1  0
  3  6  1  0
  6  7  1  0
  7  8  1  0
  8  9  1  0
  9 10  2  0
  9 11  1  0
 11 12  2  0
 12 13  1  0
 12 14  1  0
 14 15  1  0
 15 16  1  0
 16 17  2  0
 17 18  1  0
 18 19  2  0
 18 20  1  0
 20 21  1  0
 21 22  1  0
 22 23  2  0
 23 24  1  0
 24 25  1  0
 24 26  2  0
 26 27  1  0
 15 28  2  0
 28 29  1  0
 28 11  1  0
 27 17  1  0
 27 21  2  0
  1 30  1  0
  1 31  1  0
  1 32  1  0
  2 33  1  0
  2 34  1  0
  4 35  1  0
  4 36  1  0
  5 37  1  0
  5 38  1  0
  5 39  1  0
  6 40  1  0
  6 41  1  0
  7 42  1  0
  7 43  1  0
  8 44  1  0
 13 45  1  0
 13 46  1  0
 13 47  1  0
 14 48  1  0
 16 49  1  0
 20 50  1  0
 22 51  1  0
 23 52  1  0
 26 53  1  0
 29 54  1  0
 29 55  1  0
 29 56  1  0
M  END
>  <meeko>  (2) 
{"is_sidechain": false}

>  <vina_affinity_kcal_mol>  (2) 
-8.063

>  <pose_rank>  (2) 
2

$$$$

     RDKit          3D

 56 58  0  0  0  0  0  0  0  0999 V2000
  -10.6660    7.3250  -22.1290 C   0  0  0  0  0  0  0  0  0  0  0  0
   -9.5170    7.7140  -21.2050 C   0  0  0  0  0  0  0  0  0  0  0  0
   -9.8780    7.7380  -19.7760 N   0  0  0  0  0  0  0  0  0  0  0  0
   -9.3180    8.8770  -19.0340 C   0  0  0  0  0  0  0  0  0  0  0  0
   -8.7620   10.0260  -19.8700 C   0  0  0  0  0  0  0  0  0  0  0  0
   -9.5870    6.4210  -19.1690 C   0  0  0  0  0  0  0  0  0  0  0  0
  -10.8240    5.6310  -18.6980 C   0  0  0  0  0  0  0  0  0  0  0  0
  -10.5250    4.7510  -17.5830 N   0  0  0  0  0  0  0  0  0  0  0  0
  -10.6280    5.1710  -16.2750 C   0  0  0  0  0  0  0  0  0  0  0  0
  -10.9300    6.3190  -15.9660 O   0  0  0  0  0  0  0  0  0  0  0  0
  -10.4180    4.1150  -15.2790 C   0  0  0  0  0  0  0  0  0  0  0  0
   -9.2770    3.3450  -15.0890 C   0  0  0  0  0  0  0  0  0  0  0  0
   -7.9440    3.3460  -15.7490 C   0  0  0  0  0  0  0  0  0  0  0  0
   -9.5250    2.4800  -14.0500 N   0  0  0  0  0  0  0  0  0  0  0  0
  -10.7700    2.6890  -13.5160 C   0  0  0  0  0  0  0  0  0  0  0  0
  -11.2530    1.9540  -12.3950 C   0  0  0  0  0  0  0  0  0  0  0  0
  -11.1050    0.6540  -12.0910 C   0  0  0  0  0  0  0  0  0  0  0  0
  -10.3900   -0.4630  -12.8160 C   0  0  0  0  0  0  0  0  0  0  0  0
   -9.7670   -0.4090  -13.8600 O   0  0  0  0  0  0  0  0  0  0  0  0
  -10.5790   -1.5910  -12.0380 N   0  0  0  0  0  0  0  0  0  0  0  0
  -11.3290   -1.3100  -10.9040 C   0  0  0  0  0  0  0  0  0  0  0  0
  -11.6990   -2.2030   -9.9160 C   0  0  0  0  0  0  0  0  0  0  0  0
  -12.4580   -1.7040   -8.8570 C   0  0  0  0  0  0  0  0  0  0  0  0
  -12.8160   -0.3480   -8.8210 C   0  0  0  0  0  0  0  0  0  0  0  0
  -13.5450    0.1030   -7.7920 F   0  0  0  0  0  0  0  0  0  0  0  0
  -12.4350    0.5430   -9.8250 C   0  0  0  0  0  0  0  0  0  0  0  0
  -11.6830    0.0450  -10.8750 C   0  0  0  0  0  0  0  0  0  0  0  0
  -11.3590    3.7040  -14.2650 C   0  0  0  0  0  0  0  0  0  0  0  0
  -12.7190    4.2920  -14.0790 C   0  0  0  0  0  0  0  0  0  0  0  0
  -11.5375    7.0299  -21.5262 H   0  0  0  0  0  0  0  0  0  0  0  0
  -10.9327    8.1829  -22.7637 H   0  0  0  0  0  0  0  0  0  0  0  0
  -10.3567    6.4815  -22.7637 H   0  0  0  0  0  0  0  0  0  0  0  0
   -8.7013    6.9891  -21.3435 H   0  0  0  0  0  0  0  0  0  0  0  0
   -9.2238    8.7389  -21.4762 H   0  0  0  0  0  0  0  0  0  0  0  0
  -10.1152    9.2840  -18.3946 H   0  0  0  0  0  0  0  0  0  0  0  0
   -8.4551    8.4716  -18.4853 H   0  0  0  0  0  0  0  0  0  0  0  0
   -8.3809   10.8136  -19.2033 H   0  0  0  0  0  0  0  0  0  0  0  0
   -7.9437    9.6552  -20.5047 H   0  0  0  0  0  0  0  0  0  0  0  0
   -9.5606   10.4376  -20.5047 H   0  0  0  0  0  0  0  0  0  0  0  0
   -9.0571    5.8112  -19.9155 H   0  0  0  0  0  0  0  0  0  0  0  0
   -8.9912    6.6241  -18.2669 H   0  0  0  0  0  0  0  0  0  0  0  0
  -11.6016    6.3441  -18.3869 H   0  0  0  0  0  0  0  0  0  0  0  0
  -11.1636    5.0065  -19.5374 H   0  0  0  0  0  0  0  0  0  0  0  0
  -10.4880    3.7560  -17.7480 H   0  0  0  0  0  0  0  0  0  0  0  0
   -7.1552    3.3466  -14.9823 H   0  0  0  0  0  0  0  0  0  0  0  0
   -7.8448    2.4479  -16.3764 H   0  0  0  0  0  0  0  0  0  0  0  0
   -7.8462    4.2442  -16.3764 H   0  0  0  0  0  0  0  0  0  0  0  0
   -8.8520    1.7980  -13.7100 H   0  0  0  0  0  0  0  0  0  0  0  0
  -11.8352    2.5399  -11.6685 H   0  0  0  0  0  0  0  0  0  0  0  0
  -10.2010   -2.4930  -12.2870 H   0  0  0  0  0  0  0  0  0  0  0  0
  -11.4073   -3.2626   -9.9627 H   0  0  0  0  0  0  0  0  0  0  0  0
  -12.7770   -2.3765   -8.0470 H   0  0  0  0  0  0  0  0  0  0  0  0
  -12.7222    1.6040   -9.7835 H   0  0  0  0  0  0  0  0  0  0  0  0
  -12.9344    4.3851  -13.0043 H   0  0  0  0  0  0  0  0  0  0  0  0
  -12.7558    5.2864  -14.5478 H   0  0  0  0  0  0  0  0  0  0  0  0
  -13.4687    3.6376  -14.5478 H   0  0  0  0  0  0  0  0  0  0  0  0
  1  2  1  0
  2  3  1  0
  3  4  1  0
  4  5  1  0
  3  6  1  0
  6  7  1  0
  7  8  1  0
  8  9  1  0
  9 10  2  0
  9 11  1  0
 11 12  2  0
 12 13  1  0
 12 14  1  0
 14 15  1  0
 15 16  1  0
 16 17  2  0
 17 18  1  0
 18 19  2  0
 18 20  1  0
 20 21  1  0
 21 22  1  0
 22 23  2  0
 23 24  1  0
 24 25  1  0
 24 26  2  0
 26 27  1  0
 15 28  2  0
 28 29  1  0
 28 11  1  0
 27 17  1  0
 27 21  2  0
  1 30  1  0
  1 31  1  0
  1 32  1  0
  2 33  1  0
  2 34  1  0
  4 35  1  0
  4 36  1  0
  5 37  1  0
  5 38  1  0
  5 39  1  0
  6 40  1  0
  6 41  1  0
  7 42  1  0
  7 43  1  0
  8 44  1  0
 13 45  1  0
 13 46  1  0
 13 47  1  0
 14 48  1  0
 16 49  1  0
 20 50  1  0
 22 51  1  0
 23 52  1  0
 26 53  1  0
 29 54  1  0
 29 55  1  0
 29 56  1  0
M  END
>  <meeko>  (3) 
{"is_sidechain": false}

>  <vina_affinity_kcal_mol>  (3) 
-8.061

>  <pose_rank>  (3) 
3

$$$$

     RDKit          3D

 56 58  0  0  0  0  0  0  0  0999 V2000
  -12.9120   -5.4710   -9.9020 C   0  0  0  0  0  0  0  0  0  0  0  0
  -11.9420   -4.2940   -9.8760 C   0  0  0  0  0  0  0  0  0  0  0  0
  -12.4690   -3.0970   -9.1960 N   0  0  0  0  0  0  0  0  0  0  0  0
  -13.4980   -2.3760   -9.9610 C   0  0  0  0  0  0  0  0  0  0  0  0
  -14.9090   -2.3860   -9.3810 C   0  0  0  0  0  0  0  0  0  0  0  0
  -11.3460   -2.2470   -8.7460 C   0  0  0  0  0  0  0  0  0  0  0  0
  -10.1430   -2.1910   -9.7080 C   0  0  0  0  0  0  0  0  0  0  0  0
  -10.1930   -1.0380  -10.5880 N   0  0  0  0  0  0  0  0  0  0  0  0
  -10.5430   -1.1500  -11.9150 C   0  0  0  0  0  0  0  0  0  0  0  0
  -10.7870   -2.2250  -12.4520 O   0  0  0  0  0  0  0  0  0  0  0  0
  -10.6710    0.1310  -12.6210 C   0  0  0  0  0  0  0  0  0  0  0  0
  -11.5590    1.1640  -12.3470 C   0  0  0  0  0  0  0  0  0  0  0  0
  -12.5900    1.3470  -11.2910 C   0  0  0  0  0  0  0  0  0  0  0  0
  -11.3280    2.1650  -13.2600 N   0  0  0  0  0  0  0  0  0  0  0  0
  -10.2870    1.8480  -14.0920 C   0  0  0  0  0  0  0  0  0  0  0  0
   -9.8140    2.7410  -15.0980 C   0  0  0  0  0  0  0  0  0  0  0  0
  -10.3140    3.9200  -15.5020 C   0  0  0  0  0  0  0  0  0  0  0  0
  -11.5260    4.6990  -15.0440 C   0  0  0  0  0  0  0  0  0  0  0  0
  -12.3230    4.4110  -14.1720 O   0  0  0  0  0  0  0  0  0  0  0  0
  -11.5510    5.8410  -15.8260 N   0  0  0  0  0  0  0  0  0  0  0  0
  -10.4900    5.8690  -16.7220 C   0  0  0  0  0  0  0  0  0  0  0  0
  -10.2150    6.8620  -17.6430 C   0  0  0  0  0  0  0  0  0  0  0  0
   -9.0900    6.6890  -18.4500 C   0  0  0  0  0  0  0  0  0  0  0  0
   -8.2880    5.5460  -18.3100 C   0  0  0  0  0  0  0  0  0  0  0  0
   -7.2150    5.4070  -19.0970 F   0  0  0  0  0  0  0  0  0  0  0  0
   -8.5780    4.5520  -17.3740 C   0  0  0  0  0  0  0  0  0  0  0  0
   -9.6960    4.7260  -16.5760 C   0  0  0  0  0  0  0  0  0  0  0  0
   -9.8530    0.5780  -13.7220 C   0  0  0  0  0  0  0  0  0  0  0  0
   -8.7400   -0.2100  -14.3310 C   0  0  0  0  0  0  0  0  0  0  0  0
  -13.1564   -5.7676   -8.8713 H   0  0  0  0  0  0  0  0  0  0  0  0
  -13.8326   -5.1759  -10.4267 H   0  0  0  0  0  0  0  0  0  0  0  0
  -12.4464   -6.3183  -10.4267 H   0  0  0  0  0  0  0  0  0  0  0  0
  -11.0263   -4.6120   -9.3561 H   0  0  0  0  0  0  0  0  0  0  0  0
  -11.7583   -4.0101  -10.9227 H   0  0  0  0  0  0  0  0  0  0  0  0
  -13.1784   -1.3268  -10.0447 H   0  0  0  0  0  0  0  0  0  0  0  0
  -13.5738   -2.9083  -10.9206 H   0  0  0  0  0  0  0  0  0  0  0  0
  -14.8538   -2.3856   -8.2824 H   0  0  0  0  0  0  0  0  0  0  0  0
  -15.4516   -1.4917   -9.7212 H   0  0  0  0  0  0  0  0  0  0  0  0
  -15.4389   -3.2879   -9.7212 H   0  0  0  0  0  0  0  0  0  0  0  0
  -11.7251   -1.2228   -8.6143 H   0  0  0  0  0  0  0  0  0  0  0  0
  -10.9733   -2.6989   -7.8149 H   0  0  0  0  0  0  0  0  0  0  0  0
   -9.2179   -2.1430   -9.1148 H   0  0  0  0  0  0  0  0  0  0  0  0
  -10.1723   -3.0940  -10.3355 H   0  0  0  0  0  0  0  0  0  0  0  0
  -10.2220   -0.1170  -10.1770 H   0  0  0  0  0  0  0  0  0  0  0  0
  -12.1191    1.2634  -10.3004 H   0  0  0  0  0  0  0  0  0  0  0  0
  -13.0498    2.3408  -11.3957 H   0  0  0  0  0  0  0  0  0  0  0  0
  -13.3637    0.5721  -11.3957 H   0  0  0  0  0  0  0  0  0  0  0  0
  -11.8510    3.0360  -13.2860 H   0  0  0  0  0  0  0  0  0  0  0  0
   -8.9031    2.4153  -15.6216 H   0  0  0  0  0  0  0  0  0  0  0  0
  -12.2620    6.5500  -15.7300 H   0  0  0  0  0  0  0  0  0  0  0  0
  -10.8559    7.7512  -17.7359 H   0  0  0  0  0  0  0  0  0  0  0  0
   -8.8307    7.4517  -19.1990 H   0  0  0  0  0  0  0  0  0  0  0  0
   -7.9404    3.6613  -17.2738 H   0  0  0  0  0  0  0  0  0  0  0  0
   -8.1216   -0.6478  -13.5336 H   0  0  0  0  0  0  0  0  0  0  0  0
   -9.1583   -1.0143  -14.9540 H   0  0  0  0  0  0  0  0  0  0  0  0
   -8.1203    0.4517  -14.9540 H   0  0  0  0  0  0  0  0  0  0  0  0
  1  2  1  0
  2  3  1  0
  3  4  1  0
  4  5  1  0
  3  6  1  0
  6  7  1  0
  7  8  1  0
  8  9  1  0
  9 10  2  0
  9 11  1  0
 11 12  2  0
 12 13  1  0
 12 14  1  0
 14 15  1  0
 15 16  1  0
 16 17  2  0
 17 18  1  0
 18 19  2  0
 18 20  1  0
 20 21  1  0
 21 22  1  0
 22 23  2  0
 23 24  1  0
 24 25  1  0
 24 26  2  0
 26 27  1  0
 15 28  2  0
 28 29  1  0
 28 11  1  0
 27 17  1  0
 27 21  2  0
  1 30  1  0
  1 31  1  0
  1 32  1  0
  2 33  1  0
  2 34  1  0
  4 35  1  0
  4 36  1  0
  5 37  1  0
  5 38  1  0
  5 39  1  0
  6 40  1  0
  6 41  1  0
  7 42  1  0
  7 43  1  0
  8 44  1  0
 13 45  1  0
 13 46  1  0
 13 47  1  0
 14 48  1  0
 16 49  1  0
 20 50  1  0
 22 51  1  0
 23 52  1  0
 26 53  1  0
 29 54  1  0
 29 55  1  0
 29 56  1  0
M  END
>  <meeko>  (4) 
{"is_sidechain": false}

>  <vina_affinity_kcal_mol>  (4) 
-8.042

>  <pose_rank>  (4) 
4

$$$$

     RDKit          3D

 56 58  0  0  0  0  0  0  0  0999 V2000
   -9.2500    9.0600  -19.4020 C   0  0  0  0  0  0  0  0  0  0  0  0
   -9.6540    7.5980  -19.2420 C   0  0  0  0  0  0  0  0  0  0  0  0
   -8.8030    6.8400  -18.3070 N   0  0  0  0  0  0  0  0  0  0  0  0
   -8.3970    5.5170  -18.8030 C   0  0  0  0  0  0  0  0  0  0  0  0
   -7.2440    4.8390  -18.0690 C   0  0  0  0  0  0  0  0  0  0  0  0
   -9.4350    6.8140  -16.9700 C   0  0  0  0  0  0  0  0  0  0  0  0
  -10.7710    6.0460  -16.8940 C   0  0  0  0  0  0  0  0  0  0  0  0
  -10.8140    5.1250  -15.7740 N   0  0  0  0  0  0  0  0  0  0  0  0
  -10.3630    3.8280  -15.8790 C   0  0  0  0  0  0  0  0  0  0  0  0
   -9.9420    3.3520  -16.9290 O   0  0  0  0  0  0  0  0  0  0  0  0
  -10.3590    3.0800  -14.6170 C   0  0  0  0  0  0  0  0  0  0  0  0
   -9.2550    2.6470  -13.8920 C   0  0  0  0  0  0  0  0  0  0  0  0
   -7.7920    2.8150  -14.0970 C   0  0  0  0  0  0  0  0  0  0  0  0
   -9.7190    1.9860  -12.7800 N   0  0  0  0  0  0  0  0  0  0  0  0
  -11.0880    2.0110  -12.7220 C   0  0  0  0  0  0  0  0  0  0  0  0
  -11.8170    1.4370  -11.6410 C   0  0  0  0  0  0  0  0  0  0  0  0
  -11.7600    0.1960  -11.1300 C   0  0  0  0  0  0  0  0  0  0  0  0
  -10.9220   -1.0020  -11.5140 C   0  0  0  0  0  0  0  0  0  0  0  0
  -10.0850   -1.0880  -12.3920 O   0  0  0  0  0  0  0  0  0  0  0  0
  -11.2960   -2.0110  -10.6430 N   0  0  0  0  0  0  0  0  0  0  0  0
  -12.2710   -1.5820   -9.7540 C   0  0  0  0  0  0  0  0  0  0  0  0
  -12.8630   -2.3310   -8.7540 C   0  0  0  0  0  0  0  0  0  0  0  0
  -13.8280   -1.6980   -7.9690 C   0  0  0  0  0  0  0  0  0  0  0  0
  -14.1620   -0.3570   -8.2060 C   0  0  0  0  0  0  0  0  0  0  0  0
  -15.0910    0.2250   -7.4370 F   0  0  0  0  0  0  0  0  0  0  0  0
  -13.5560    0.3880   -9.2180 C   0  0  0  0  0  0  0  0  0  0  0  0
  -12.6000   -0.2430   -9.9960 C   0  0  0  0  0  0  0  0  0  0  0  0
  -11.5220    2.6860  -13.8600 C   0  0  0  0  0  0  0  0  0  0  0  0
  -12.9330    2.9730  -14.2560 C   0  0  0  0  0  0  0  0  0  0  0  0
   -9.1239    9.5163  -18.4091 H   0  0  0  0  0  0  0  0  0  0  0  0
   -8.3017    9.1198  -19.9561 H   0  0  0  0  0  0  0  0  0  0  0  0
  -10.0331    9.5983  -19.9561 H   0  0  0  0  0  0  0  0  0  0  0  0
  -10.6896    7.5637  -18.8727 H   0  0  0  0  0  0  0  0  0  0  0  0
   -9.5407    7.1265  -20.2293 H   0  0  0  0  0  0  0  0  0  0  0  0
   -9.2714    4.8528  -18.7376 H   0  0  0  0  0  0  0  0  0  0  0  0
   -8.0297    5.6896  -19.8254 H   0  0  0  0  0  0  0  0  0  0  0  0
   -7.3970    4.9290  -16.9834 H   0  0  0  0  0  0  0  0  0  0  0  0
   -7.2071    3.7754  -18.3472 H   0  0  0  0  0  0  0  0  0  0  0  0
   -6.2966    5.3238  -18.3472 H   0  0  0  0  0  0  0  0  0  0  0  0
   -8.7304    6.3429  -16.2688 H   0  0  0  0  0  0  0  0  0  0  0  0
   -9.6674    7.8597  -16.7199 H   0  0  0  0  0  0  0  0  0  0  0  0
  -11.5906    6.7718  -16.7867 H   0  0  0  0  0  0  0  0  0  0  0  0
  -10.8737    5.4575  -17.8176 H   0  0  0  0  0  0  0  0  0  0  0  0
  -10.9360    5.4980  -14.8440 H   0  0  0  0  0  0  0  0  0  0  0  0
   -7.2892    2.8727  -13.1204 H   0  0  0  0  0  0  0  0  0  0  0  0
   -7.3998    1.9560  -14.6611 H   0  0  0  0  0  0  0  0  0  0  0  0
   -7.6047    3.7406  -14.6611 H   0  0  0  0  0  0  0  0  0  0  0  0
   -9.1140    1.5620  -12.0830 H   0  0  0  0  0  0  0  0  0  0  0  0
  -12.5346    2.1115  -11.1510 H   0  0  0  0  0  0  0  0  0  0  0  0
  -10.8870   -2.9330  -10.6720 H   0  0  0  0  0  0  0  0  0  0  0  0
  -12.5852   -3.3817   -8.5842 H   0  0  0  0  0  0  0  0  0  0  0  0
  -14.3282   -2.2530   -7.1617 H   0  0  0  0  0  0  0  0  0  0  0  0
  -13.8280    1.4396   -9.3917 H   0  0  0  0  0  0  0  0  0  0  0  0
  -13.5489    3.0983  -13.3533 H   0  0  0  0  0  0  0  0  0  0  0  0
  -12.9657    3.8962  -14.8532 H   0  0  0  0  0  0  0  0  0  0  0  0
  -13.3237    2.1359  -14.8532 H   0  0  0  0  0  0  0  0  0  0  0  0
  1  2  1  0
  2  3  1  0
  3  4  1  0
  4  5  1  0
  3  6  1  0
  6  7  1  0
  7  8  1  0
  8  9  1  0
  9 10  2  0
  9 11  1  0
 11 12  2  0
 12 13  1  0
 12 14  1  0
 14 15  1  0
 15 16  1  0
 16 17  2  0
 17 18  1  0
 18 19  2  0
 18 20  1  0
 20 21  1  0
 21 22  1  0
 22 23  2  0
 23 24  1  0
 24 25  1  0
 24 26  2  0
 26 27  1  0
 15 28  2  0
 28 29  1  0
 28 11  1  0
 27 17  1  0
 27 21  2  0
  1 30  1  0
  1 31  1  0
  1 32  1  0
  2 33  1  0
  2 34  1  0
  4 35  1  0
  4 36  1  0
  5 37  1  0
  5 38  1  0
  5 39  1  0
  6 40  1  0
  6 41  1  0
  7 42  1  0
  7 43  1  0
  8 44  1  0
 13 45  1  0
 13 46  1  0
 13 47  1  0
 14 48  1  0
 16 49  1  0
 20 50  1  0
 22 51  1  0
 23 52  1  0
 26 53  1  0
 29 54  1  0
 29 55  1  0
 29 56  1  0
M  END
>  <meeko>  (5) 
{"is_sidechain": false}

>  <vina_affinity_kcal_mol>  (5) 
-7.986

>  <pose_rank>  (5) 
5

$$$$

     RDKit          3D

 56 58  0  0  0  0  0  0  0  0999 V2000
  -10.3540    7.1540  -22.2030 C   0  0  0  0  0  0  0  0  0  0  0  0
  -10.0310    8.3740  -21.3460 C   0  0  0  0  0  0  0  0  0  0  0  0
  -10.1690    8.1430  -19.8970 N   0  0  0  0  0  0  0  0  0  0  0  0
   -9.3340    9.0250  -19.0680 C   0  0  0  0  0  0  0  0  0  0  0  0
   -8.6020   10.1490  -19.7930 C   0  0  0  0  0  0  0  0  0  0  0  0
  -10.0010    6.7040  -19.6060 C   0  0  0  0  0  0  0  0  0  0  0  0
  -11.0940    6.0870  -18.7100 C   0  0  0  0  0  0  0  0  0  0  0  0
  -10.6150    4.9350  -17.9690 N   0  0  0  0  0  0  0  0  0  0  0  0
  -10.0500    5.0560  -16.7190 C   0  0  0  0  0  0  0  0  0  0  0  0
   -9.8700    6.1390  -16.1710 O   0  0  0  0  0  0  0  0  0  0  0  0
   -9.7440    3.7800  -16.0620 C   0  0  0  0  0  0  0  0  0  0  0  0
  -10.4290    3.1820  -15.0120 C   0  0  0  0  0  0  0  0  0  0  0  0
  -11.6540    3.5700  -14.2630 C   0  0  0  0  0  0  0  0  0  0  0  0
   -9.7920    2.0010  -14.7170 N   0  0  0  0  0  0  0  0  0  0  0  0
   -8.7420    1.7760  -15.5680 C   0  0  0  0  0  0  0  0  0  0  0  0
   -7.9470    0.5950  -15.5050 C   0  0  0  0  0  0  0  0  0  0  0  0
   -6.7210    0.4120  -14.9870 C   0  0  0  0  0  0  0  0  0  0  0  0
   -5.7750    1.3720  -14.3030 C   0  0  0  0  0  0  0  0  0  0  0  0
   -5.9400    2.5540  -14.0630 O   0  0  0  0  0  0  0  0  0  0  0  0
   -4.6530    0.6270  -13.9880 N   0  0  0  0  0  0  0  0  0  0  0  0
   -4.7880   -0.6950  -14.3920 C   0  0  0  0  0  0  0  0  0  0  0  0
   -3.8600   -1.7060  -14.2310 C   0  0  0  0  0  0  0  0  0  0  0  0
   -4.2030   -2.9700  -14.7140 C   0  0  0  0  0  0  0  0  0  0  0  0
   -5.4440   -3.1760  -15.3330 C   0  0  0  0  0  0  0  0  0  0  0  0
   -5.7470   -4.3990  -15.7870 F   0  0  0  0  0  0  0  0  0  0  0  0
   -6.3720   -2.1460  -15.4890 C   0  0  0  0  0  0  0  0  0  0  0  0
   -6.0290   -0.8930  -15.0090 C   0  0  0  0  0  0  0  0  0  0  0  0
   -8.6810    2.8730  -16.4230 C   0  0  0  0  0  0  0  0  0  0  0  0
   -7.7050    3.1030  -17.5290 C   0  0  0  0  0  0  0  0  0  0  0  0
  -10.5807    6.2976  -21.5510 H   0  0  0  0  0  0  0  0  0  0  0  0
  -11.2253    7.3722  -22.8380 H   0  0  0  0  0  0  0  0  0  0  0  0
   -9.4888    6.9125  -22.8380 H   0  0  0  0  0  0  0  0  0  0  0  0
   -8.9931    8.6754  -21.5508 H   0  0  0  0  0  0  0  0  0  0  0  0
  -10.7596    9.1531  -21.6146 H   0  0  0  0  0  0  0  0  0  0  0  0
   -9.9845    9.4848  -18.3094 H   0  0  0  0  0  0  0  0  0  0  0  0
   -8.5430    8.3781  -18.6608 H   0  0  0  0  0  0  0  0  0  0  0  0
   -8.1569   10.8325  -19.0550 H   0  0  0  0  0  0  0  0  0  0  0  0
   -7.8079    9.7226  -20.4235 H   0  0  0  0  0  0  0  0  0  0  0  0
   -9.3131   10.7028  -20.4235 H   0  0  0  0  0  0  0  0  0  0  0  0
   -9.9974    6.1608  -20.5625 H   0  0  0  0  0  0  0  0  0  0  0  0
   -9.0580    6.6120  -19.0471 H   0  0  0  0  0  0  0  0  0  0  0  0
  -11.4371    6.8494  -17.9952 H   0  0  0  0  0  0  0  0  0  0  0  0
  -11.9127    5.7499  -19.3627 H   0  0  0  0  0  0  0  0  0  0  0  0
  -10.9230    4.0160  -18.2510 H   0  0  0  0  0  0  0  0  0  0  0  0
  -11.4581    3.5080  -13.1824 H   0  0  0  0  0  0  0  0  0  0  0  0
  -11.9337    4.6007  -14.5263 H   0  0  0  0  0  0  0  0  0  0  0  0
  -12.4761    2.8883  -14.5263 H   0  0  0  0  0  0  0  0  0  0  0  0
  -10.0890    1.3690  -13.9770 H   0  0  0  0  0  0  0  0  0  0  0  0
   -8.4062   -0.3016  -15.9469 H   0  0  0  0  0  0  0  0  0  0  0  0
   -3.8520    1.0210  -13.5160 H   0  0  0  0  0  0  0  0  0  0  0  0
   -2.8916   -1.5225  -13.7427 H   0  0  0  0  0  0  0  0  0  0  0  0
   -3.4973   -3.8072  -14.6086 H   0  0  0  0  0  0  0  0  0  0  0  0
   -7.3422   -2.3229  -15.9762 H   0  0  0  0  0  0  0  0  0  0  0  0
   -6.7174    3.3357  -17.1041 H   0  0  0  0  0  0  0  0  0  0  0  0
   -7.6332    2.1972  -18.1489 H   0  0  0  0  0  0  0  0  0  0  0  0
   -8.0452    3.9456  -18.1489 H   0  0  0  0  0  0  0  0  0  0  0  0
  1  2  1  0
  2  3  1  0
  3  4  1  0
  4  5  1  0
  3  6  1  0
  6  7  1  0
  7  8  1  0
  8  9  1  0
  9 10  2  0
  9 11  1  0
 11 12  2  0
 12 13  1  0
 12 14  1  0
 14 15  1  0
 15 16  1  0
 16 17  2  0
 17 18  1  0
 18 19  2  0
 18 20  1  0
 20 21  1  0
 21 22  1  0
 22 23  2  0
 23 24  1  0
 24 25  1  0
 24 26  2  0
 26 27  1  0
 15 28  2  0
 28 29  1  0
 28 11  1  0
 27 17  1  0
 27 21  2  0
  1 30  1  0
  1 31  1  0
  1 32  1  0
  2 33  1  0
  2 34  1  0
  4 35  1  0
  4 36  1  0
  5 37  1  0
  5 38  1  0
  5 39  1  0
  6 40  1  0
  6 41  1  0
  7 42  1  0
  7 43  1  0
  8 44  1  0
 13 45  1  0
 13 46  1  0
 13 47  1  0
 14 48  1  0
 16 49  1  0
 20 50  1  0
 22 51  1  0
 23 52  1  0
 26 53  1  0
 29 54  1  0
 29 55  1  0
 29 56  1  0
M  END
>  <meeko>  (6) 
{"is_sidechain": false}

>  <vina_affinity_kcal_mol>  (6) 
-7.937

>  <pose_rank>  (6) 
6

$$$$

     RDKit          3D

 56 58  0  0  0  0  0  0  0  0999 V2000
   -8.6050   10.1060  -19.7910 C   0  0  0  0  0  0  0  0  0  0  0  0
   -9.4570    9.0240  -19.1370 C   0  0  0  0  0  0  0  0  0  0  0  0
   -9.1900    7.6650  -19.6400 N   0  0  0  0  0  0  0  0  0  0  0  0
  -10.1980    7.1690  -20.5900 C   0  0  0  0  0  0  0  0  0  0  0  0
   -9.9570    7.4840  -22.0630 C   0  0  0  0  0  0  0  0  0  0  0  0
   -8.9350    6.7550  -18.5030 C   0  0  0  0  0  0  0  0  0  0  0  0
   -8.3450    5.3820  -18.8830 C   0  0  0  0  0  0  0  0  0  0  0  0
   -8.8010    4.3230  -18.0030 N   0  0  0  0  0  0  0  0  0  0  0  0
   -7.9670    3.7310  -17.0810 C   0  0  0  0  0  0  0  0  0  0  0  0
   -6.7800    4.0210  -16.9730 O   0  0  0  0  0  0  0  0  0  0  0  0
   -8.6290    2.7730  -16.1870 C   0  0  0  0  0  0  0  0  0  0  0  0
   -8.3640    1.4160  -16.0550 C   0  0  0  0  0  0  0  0  0  0  0  0
   -7.3590    0.5230  -16.6910 C   0  0  0  0  0  0  0  0  0  0  0  0
   -9.2240    0.9130  -15.1080 N   0  0  0  0  0  0  0  0  0  0  0  0
  -10.0100    1.9020  -14.5760 C   0  0  0  0  0  0  0  0  0  0  0  0
  -10.9540    1.6510  -13.5380 C   0  0  0  0  0  0  0  0  0  0  0  0
  -10.9280    0.7340  -12.5570 C   0  0  0  0  0  0  0  0  0  0  0  0
   -9.9120   -0.3320  -12.2170 C   0  0  0  0  0  0  0  0  0  0  0  0
   -8.8610   -0.5810  -12.7770 O   0  0  0  0  0  0  0  0  0  0  0  0
  -10.4180   -0.9870  -11.1070 N   0  0  0  0  0  0  0  0  0  0  0  0
  -11.6360   -0.4500  -10.7100 C   0  0  0  0  0  0  0  0  0  0  0  0
  -12.4100   -0.8630   -9.6420 C   0  0  0  0  0  0  0  0  0  0  0  0
  -13.6060   -0.1790   -9.4190 C   0  0  0  0  0  0  0  0  0  0  0  0
  -13.9820    0.8790  -10.2600 C   0  0  0  0  0  0  0  0  0  0  0  0
  -15.1350    1.5170  -10.0230 F   0  0  0  0  0  0  0  0  0  0  0  0
  -13.1900    1.2850  -11.3340 C   0  0  0  0  0  0  0  0  0  0  0  0
  -12.0040    0.6050  -11.5530 C   0  0  0  0  0  0  0  0  0  0  0  0
   -9.6660    3.0800  -15.2330 C   0  0  0  0  0  0  0  0  0  0  0  0
  -10.2440    4.4390  -15.0120 C   0  0  0  0  0  0  0  0  0  0  0  0
   -8.1249   10.7157  -19.0115 H   0  0  0  0  0  0  0  0  0  0  0  0
   -7.8321    9.6358  -20.4167 H   0  0  0  0  0  0  0  0  0  0  0  0
   -9.2433   10.7471  -20.4167 H   0  0  0  0  0  0  0  0  0  0  0  0
   -9.2613    9.0368  -18.0546 H   0  0  0  0  0  0  0  0  0  0  0  0
  -10.5048    9.2534  -19.3809 H   0  0  0  0  0  0  0  0  0  0  0  0
  -10.2462    6.0750  -20.4856 H   0  0  0  0  0  0  0  0  0  0  0  0
  -11.1285    7.6939  -20.3281 H   0  0  0  0  0  0  0  0  0  0  0  0
   -9.2906    8.3551  -22.1474 H   0  0  0  0  0  0  0  0  0  0  0  0
   -9.4900    6.6163  -22.5519 H   0  0  0  0  0  0  0  0  0  0  0  0
  -10.9166    7.7078  -22.5519 H   0  0  0  0  0  0  0  0  0  0  0  0
   -8.2297    7.2518  -17.8206 H   0  0  0  0  0  0  0  0  0  0  0  0
   -9.9156    6.5515  -18.0479 H   0  0  0  0  0  0  0  0  0  0  0  0
   -8.6467    5.1403  -19.9128 H   0  0  0  0  0  0  0  0  0  0  0  0
   -7.2510    5.4489  -18.7894 H   0  0  0  0  0  0  0  0  0  0  0  0
   -9.7940    4.1880  -17.8820 H   0  0  0  0  0  0  0  0  0  0  0  0
   -6.7797    0.0083  -15.9103 H   0  0  0  0  0  0  0  0  0  0  0  0
   -7.8736   -0.2213  -17.3165 H   0  0  0  0  0  0  0  0  0  0  0  0
   -6.6804    1.1215  -17.3165 H   0  0  0  0  0  0  0  0  0  0  0  0
   -9.2440   -0.0630  -14.8260 H   0  0  0  0  0  0  0  0  0  0  0  0
  -11.8368    2.3072  -13.5408 H   0  0  0  0  0  0  0  0  0  0  0  0
   -9.9360   -1.7520  -10.6600 H   0  0  0  0  0  0  0  0  0  0  0  0
  -12.0966   -1.6956   -8.9951 H   0  0  0  0  0  0  0  0  0  0  0  0
  -14.2560   -0.4705   -8.5809 H   0  0  0  0  0  0  0  0  0  0  0  0
  -13.4972    2.1170  -11.9847 H   0  0  0  0  0  0  0  0  0  0  0  0
  -10.3259    4.6315  -13.9321 H   0  0  0  0  0  0  0  0  0  0  0  0
   -9.5895    5.1948  -15.4706 H   0  0  0  0  0  0  0  0  0  0  0  0
  -11.2425    4.4918  -15.4706 H   0  0  0  0  0  0  0  0  0  0  0  0
  1  2  1  0
  2  3  1  0
  3  4  1  0
  4  5  1  0
  3  6  1  0
  6  7  1  0
  7  8  1  0
  8  9  1  0
  9 10  2  0
  9 11  1  0
 11 12  2  0
 12 13  1  0
 12 14  1  0
 14 15  1  0
 15 16  1  0
 16 17  2  0
 17 18  1  0
 18 19  2  0
 18 20  1  0
 20 21  1  0
 21 22  1  0
 22 23  2  0
 23 24  1  0
 24 25  1  0
 24 26  2  0
 26 27  1  0
 15 28  2  0
 28 29  1  0
 28 11  1  0
 27 17  1  0
 27 21  2  0
  1 30  1  0
  1 31  1  0
  1 32  1  0
  2 33  1  0
  2 34  1  0
  4 35  1  0
  4 36  1  0
  5 37  1  0
  5 38  1  0
  5 39  1  0
  6 40  1  0
  6 41  1  0
  7 42  1  0
  7 43  1  0
  8 44  1  0
 13 45  1  0
 13 46  1  0
 13 47  1  0
 14 48  1  0
 16 49  1  0
 20 50  1  0
 22 51  1  0
 23 52  1  0
 26 53  1  0
 29 54  1  0
 29 55  1  0
 29 56  1  0
M  END
>  <meeko>  (7) 
{"is_sidechain": false}

>  <vina_affinity_kcal_mol>  (7) 
-7.935

>  <pose_rank>  (7) 
7

$$$$

     RDKit          3D

 56 58  0  0  0  0  0  0  0  0999 V2000
  -13.0880   -4.8570  -10.7970 C   0  0  0  0  0  0  0  0  0  0  0  0
  -13.2010   -5.0920   -9.2940 C   0  0  0  0  0  0  0  0  0  0  0  0
  -13.2040   -3.8550   -8.4930 N   0  0  0  0  0  0  0  0  0  0  0  0
  -12.2250   -3.8480   -7.3960 C   0  0  0  0  0  0  0  0  0  0  0  0
  -12.1730   -2.5870   -6.5390 C   0  0  0  0  0  0  0  0  0  0  0  0
  -14.5860   -3.5420   -8.0700 C   0  0  0  0  0  0  0  0  0  0  0  0
  -15.2560   -2.3810   -8.8320 C   0  0  0  0  0  0  0  0  0  0  0  0
  -14.3230   -1.6710   -9.6870 N   0  0  0  0  0  0  0  0  0  0  0  0
  -13.7040   -0.5090   -9.2850 C   0  0  0  0  0  0  0  0  0  0  0  0
  -13.9320    0.0290   -8.2060 O   0  0  0  0  0  0  0  0  0  0  0  0
  -12.6950   -0.0010  -10.2210 C   0  0  0  0  0  0  0  0  0  0  0  0
  -11.4030   -0.4760  -10.4150 C   0  0  0  0  0  0  0  0  0  0  0  0
  -10.6530   -1.6140   -9.8190 C   0  0  0  0  0  0  0  0  0  0  0  0
  -10.8140    0.3000  -11.3840 N   0  0  0  0  0  0  0  0  0  0  0  0
  -11.6890    1.2360  -11.8710 C   0  0  0  0  0  0  0  0  0  0  0  0
  -11.3390    2.1350  -12.9200 C   0  0  0  0  0  0  0  0  0  0  0  0
  -10.5090    1.9590  -13.9610 C   0  0  0  0  0  0  0  0  0  0  0  0
   -9.6730    0.7710  -14.3790 C   0  0  0  0  0  0  0  0  0  0  0  0
   -9.5850   -0.3170  -13.8420 O   0  0  0  0  0  0  0  0  0  0  0  0
   -9.0120    1.1670  -15.5280 N   0  0  0  0  0  0  0  0  0  0  0  0
   -9.3410    2.4690  -15.8820 C   0  0  0  0  0  0  0  0  0  0  0  0
   -8.8650    3.1730  -16.9730 C   0  0  0  0  0  0  0  0  0  0  0  0
   -9.3310    4.4770  -17.1430 C   0  0  0  0  0  0  0  0  0  0  0  0
  -10.2430    5.0260  -16.2300 C   0  0  0  0  0  0  0  0  0  0  0  0
  -10.6730    6.2800  -16.4180 F   0  0  0  0  0  0  0  0  0  0  0  0
  -10.7160    4.3040  -15.1340 C   0  0  0  0  0  0  0  0  0  0  0  0
  -10.2520    3.0100  -14.9670 C   0  0  0  0  0  0  0  0  0  0  0  0
  -12.8760    1.0790  -11.1610 C   0  0  0  0  0  0  0  0  0  0  0  0
  -14.1350    1.8650  -11.3210 C   0  0  0  0  0  0  0  0  0  0  0  0
  -12.6180   -3.8796  -10.9810 H   0  0  0  0  0  0  0  0  0  0  0  0
  -12.4728   -5.6502  -11.2469 H   0  0  0  0  0  0  0  0  0  0  0  0
  -14.0917   -4.8717  -11.2469 H   0  0  0  0  0  0  0  0  0  0  0  0
  -14.1382   -5.6334   -9.0980 H   0  0  0  0  0  0  0  0  0  0  0  0
  -12.3109   -5.6640   -8.9933 H   0  0  0  0  0  0  0  0  0  0  0  0
  -12.4600   -4.6935   -6.7328 H   0  0  0  0  0  0  0  0  0  0  0  0
  -11.2408   -3.9099   -7.8834 H   0  0  0  0  0  0  0  0  0  0  0  0
  -12.1845   -2.8660   -5.4750 H   0  0  0  0  0  0  0  0  0  0  0  0
  -11.2511   -2.0299   -6.7620 H   0  0  0  0  0  0  0  0  0  0  0  0
  -13.0459   -1.9559   -6.7620 H   0  0  0  0  0  0  0  0  0  0  0  0
  -15.1992   -4.4436   -8.2150 H   0  0  0  0  0  0  0  0  0  0  0  0
  -14.5198   -3.2215   -7.0198 H   0  0  0  0  0  0  0  0  0  0  0  0
  -16.0667   -2.7878   -9.4544 H   0  0  0  0  0  0  0  0  0  0  0  0
  -15.6395   -1.6676   -8.0877 H   0  0  0  0  0  0  0  0  0  0  0  0
  -13.9260   -2.1570  -10.4780 H   0  0  0  0  0  0  0  0  0  0  0  0
  -10.6968   -1.5476   -8.7219 H   0  0  0  0  0  0  0  0  0  0  0  0
  -11.1037   -2.5622  -10.1472 H   0  0  0  0  0  0  0  0  0  0  0  0
   -9.6039   -1.5737  -10.1472 H   0  0  0  0  0  0  0  0  0  0  0  0
   -9.8610    0.1680  -11.7110 H   0  0  0  0  0  0  0  0  0  0  0  0
  -11.8216    3.1222  -12.8693 H   0  0  0  0  0  0  0  0  0  0  0  0
   -8.3800    0.5610  -16.0290 H   0  0  0  0  0  0  0  0  0  0  0  0
   -8.1491    2.7238  -17.6771 H   0  0  0  0  0  0  0  0  0  0  0  0
   -8.9817    5.0768  -17.9964 H   0  0  0  0  0  0  0  0  0  0  0  0
  -11.4327    4.7472  -14.4270 H   0  0  0  0  0  0  0  0  0  0  0  0
  -14.5385    2.1169  -10.3292 H   0  0  0  0  0  0  0  0  0  0  0  0
  -13.9215    2.7905  -11.8759 H   0  0  0  0  0  0  0  0  0  0  0  0
  -14.8727    1.2668  -11.8759 H   0  0  0  0  0  0  0  0  0  0  0  0
  1  2  1  0
  2  3  1  0
  3  4  1  0
  4  5  1  0
  3  6  1  0
  6  7  1  0
  7  8  1  0
  8  9  1  0
  9 10  2  0
  9 11  1  0
 11 12  2  0
 12 13  1  0
 12 14  1  0
 14 15  1  0
 15 16  1  0
 16 17  2  0
 17 18  1  0
 18 19  2  0
 18 20  1  0
 20 21  1  0
 21 22  1  0
 22 23  2  0
 23 24  1  0
 24 25  1  0
 24 26  2  0
 26 27  1  0
 15 28  2  0
 28 29  1  0
 28 11  1  0
 27 17  1  0
 27 21  2  0
  1 30  1  0
  1 31  1  0
  1 32  1  0
  2 33  1  0
  2 34  1  0
  4 35  1  0
  4 36  1  0
  5 37  1  0
  5 38  1  0
  5 39  1  0
  6 40  1  0
  6 41  1  0
  7 42  1  0
  7 43  1  0
  8 44  1  0
 13 45  1  0
 13 46  1  0
 13 47  1  0
 14 48  1  0
 16 49  1  0
 20 50  1  0
 22 51  1  0
 23 52  1  0
 26 53  1  0
 29 54  1  0
 29 55  1  0
 29 56  1  0
M  END
>  <meeko>  (8) 
{"is_sidechain": false}

>  <vina_affinity_kcal_mol>  (8) 
-7.868

>  <pose_rank>  (8) 
8

$$$$

     RDKit          3D

 56 58  0  0  0  0  0  0  0  0999 V2000
   -9.5560    8.1670  -19.2930 C   0  0  0  0  0  0  0  0  0  0  0  0
   -9.4680    6.7100  -19.7350 C   0  0  0  0  0  0  0  0  0  0  0  0
   -9.7300    5.7400  -18.6580 N   0  0  0  0  0  0  0  0  0  0  0  0
  -11.0600    5.8690  -18.0440 C   0  0  0  0  0  0  0  0  0  0  0  0
  -11.1090    5.8670  -16.5190 C   0  0  0  0  0  0  0  0  0  0  0  0
   -8.6140    5.7610  -17.6880 C   0  0  0  0  0  0  0  0  0  0  0  0
   -7.7440    4.4890  -17.6640 C   0  0  0  0  0  0  0  0  0  0  0  0
   -8.3290    3.4350  -16.8560 N   0  0  0  0  0  0  0  0  0  0  0  0
   -7.6250    2.8090  -15.8530 C   0  0  0  0  0  0  0  0  0  0  0  0
   -6.4500    3.0610  -15.6050 O   0  0  0  0  0  0  0  0  0  0  0  0
   -8.4130    1.8630  -15.0540 C   0  0  0  0  0  0  0  0  0  0  0  0
   -8.5240    0.4900  -15.2330 C   0  0  0  0  0  0  0  0  0  0  0  0
   -7.8950   -0.4500  -16.1990 C   0  0  0  0  0  0  0  0  0  0  0  0
   -9.3680    0.0090  -14.2600 N   0  0  0  0  0  0  0  0  0  0  0  0
   -9.7750    1.0090  -13.4170 C   0  0  0  0  0  0  0  0  0  0  0  0
  -10.6160    0.7650  -12.2930 C   0  0  0  0  0  0  0  0  0  0  0  0
  -11.8720    1.1780  -12.0540 C   0  0  0  0  0  0  0  0  0  0  0  0
  -12.8140    2.0280  -12.8750 C   0  0  0  0  0  0  0  0  0  0  0  0
  -12.6250    2.5240  -13.9700 O   0  0  0  0  0  0  0  0  0  0  0  0
  -13.9710    2.1330  -12.1240 N   0  0  0  0  0  0  0  0  0  0  0  0
  -13.8640    1.4410  -10.9240 C   0  0  0  0  0  0  0  0  0  0  0  0
  -14.8330    1.3360   -9.9430 C   0  0  0  0  0  0  0  0  0  0  0  0
  -14.5140    0.5870   -8.8100 C   0  0  0  0  0  0  0  0  0  0  0  0
  -13.2560   -0.0240   -8.6980 C   0  0  0  0  0  0  0  0  0  0  0  0
  -12.9780   -0.7370   -7.5990 F   0  0  0  0  0  0  0  0  0  0  0  0
  -12.2880    0.0900   -9.6970 C   0  0  0  0  0  0  0  0  0  0  0  0
  -12.6070    0.8350  -10.8190 C   0  0  0  0  0  0  0  0  0  0  0  0
   -9.1980    2.1860  -13.8870 C   0  0  0  0  0  0  0  0  0  0  0  0
   -9.3410    3.5560  -13.3100 C   0  0  0  0  0  0  0  0  0  0  0  0
   -9.5590    8.2173  -18.1942 H   0  0  0  0  0  0  0  0  0  0  0  0
   -8.6897    8.7215  -19.6830 H   0  0  0  0  0  0  0  0  0  0  0  0
  -10.4827    8.6132  -19.6830 H   0  0  0  0  0  0  0  0  0  0  0  0
  -10.2051    6.5461  -20.5349 H   0  0  0  0  0  0  0  0  0  0  0  0
   -8.4341    6.5413  -20.0705 H   0  0  0  0  0  0  0  0  0  0  0  0
  -11.4979    6.8165  -18.3912 H   0  0  0  0  0  0  0  0  0  0  0  0
  -11.6122    4.9696  -18.3541 H   0  0  0  0  0  0  0  0  0  0  0  0
  -10.0851    5.9088  -16.1192 H   0  0  0  0  0  0  0  0  0  0  0  0
  -11.6752    6.7428  -16.1692 H   0  0  0  0  0  0  0  0  0  0  0  0
  -11.6020    4.9480  -16.1692 H   0  0  0  0  0  0  0  0  0  0  0  0
   -7.9642    6.6136  -17.9347 H   0  0  0  0  0  0  0  0  0  0  0  0
   -9.0753    5.8352  -16.6922 H   0  0  0  0  0  0  0  0  0  0  0  0
   -7.6272    4.1212  -18.6941 H   0  0  0  0  0  0  0  0  0  0  0  0
   -6.7737    4.7541  -17.2188 H   0  0  0  0  0  0  0  0  0  0  0  0
   -9.3330    3.3300  -16.8530 H   0  0  0  0  0  0  0  0  0  0  0  0
   -7.3654   -1.2415  -15.6485 H   0  0  0  0  0  0  0  0  0  0  0  0
   -8.6737   -0.9013  -16.8314 H   0  0  0  0  0  0  0  0  0  0  0  0
   -7.1808    0.0976  -16.8314 H   0  0  0  0  0  0  0  0  0  0  0  0
   -9.6250   -0.9700  -14.1700 H   0  0  0  0  0  0  0  0  0  0  0  0
  -10.1697    0.1450  -11.5016 H   0  0  0  0  0  0  0  0  0  0  0  0
  -14.7790    2.6500  -12.4370 H   0  0  0  0  0  0  0  0  0  0  0  0
  -15.8137    1.8224  -10.0514 H   0  0  0  0  0  0  0  0  0  0  0  0
  -15.2515    0.4751   -8.0016 H   0  0  0  0  0  0  0  0  0  0  0  0
  -11.3060   -0.3952   -9.5962 H   0  0  0  0  0  0  0  0  0  0  0  0
   -9.3345    3.4938  -12.2118 H   0  0  0  0  0  0  0  0  0  0  0  0
   -8.5036    4.1849  -13.6466 H   0  0  0  0  0  0  0  0  0  0  0  0
  -10.2902    3.9984  -13.6466 H   0  0  0  0  0  0  0  0  0  0  0  0
  1  2  1  0
  2  3  1  0
  3  4  1  0
  4  5  1  0
  3  6  1  0
  6  7  1  0
  7  8  1  0
  8  9  1  0
  9 10  2  0
  9 11  1  0
 11 12  2  0
 12 13  1  0
 12 14  1  0
 14 15  1  0
 15 16  1  0
 16 17  2  0
 17 18  1  0
 18 19  2  0
 18 20  1  0
 20 21  1  0
 21 22  1  0
 22 23  2  0
 23 24  1  0
 24 25  1  0
 24 26  2  0
 26 27  1  0
 15 28  2  0
 28 29  1  0
 28 11  1  0
 27 17  1  0
 27 21  2  0
  1 30  1  0
  1 31  1  0
  1 32  1  0
  2 33  1  0
  2 34  1  0
  4 35  1  0
  4 36  1  0
  5 37  1  0
  5 38  1  0
  5 39  1  0
  6 40  1  0
  6 41  1  0
  7 42  1  0
  7 43  1  0
  8 44  1  0
 13 45  1  0
 13 46  1  0
 13 47  1  0
 14 48  1  0
 16 49  1  0
 20 50  1  0
 22 51  1  0
 23 52  1  0
 26 53  1  0
 29 54  1  0
 29 55  1  0
 29 56  1  0
M  END
>  <meeko>  (9) 
{"is_sidechain": false}

>  <vina_affinity_kcal_mol>  (9) 
-7.853

>  <pose_rank>  (9) 
9

$$$$

     RDKit          3D

 56 58  0  0  0  0  0  0  0  0999 V2000
  -15.0160   -3.2010   -8.0150 C   0  0  0  0  0  0  0  0  0  0  0  0
  -15.0390   -2.5850   -9.4100 C   0  0  0  0  0  0  0  0  0  0  0  0
  -13.7030   -2.2780   -9.9520 N   0  0  0  0  0  0  0  0  0  0  0  0
  -12.9310   -3.4640  -10.3510 C   0  0  0  0  0  0  0  0  0  0  0  0
  -11.7420   -3.2210  -11.2760 C   0  0  0  0  0  0  0  0  0  0  0  0
  -12.9870   -1.3760   -9.0250 C   0  0  0  0  0  0  0  0  0  0  0  0
  -13.1780    0.1290   -9.2990 C   0  0  0  0  0  0  0  0  0  0  0  0
  -12.3740    0.5940  -10.4130 N   0  0  0  0  0  0  0  0  0  0  0  0
  -12.9270    1.2660  -11.4810 C   0  0  0  0  0  0  0  0  0  0  0  0
  -14.1320    1.4740  -11.5860 O   0  0  0  0  0  0  0  0  0  0  0  0
  -11.9510    1.7770  -12.4500 C   0  0  0  0  0  0  0  0  0  0  0  0
  -10.7440    1.1990  -12.8220 C   0  0  0  0  0  0  0  0  0  0  0  0
  -10.0800   -0.0740  -12.4330 C   0  0  0  0  0  0  0  0  0  0  0  0
  -10.1560    2.0210  -13.7520 N   0  0  0  0  0  0  0  0  0  0  0  0
  -10.9570    3.0940  -14.0440 C   0  0  0  0  0  0  0  0  0  0  0  0
  -10.5990    4.0730  -15.0160 C   0  0  0  0  0  0  0  0  0  0  0  0
   -9.7480    3.9840  -16.0520 C   0  0  0  0  0  0  0  0  0  0  0  0
   -8.8910    2.8390  -16.5400 C   0  0  0  0  0  0  0  0  0  0  0  0
   -8.7990    1.7150  -16.0840 O   0  0  0  0  0  0  0  0  0  0  0  0
   -8.2140    3.3270  -17.6440 N   0  0  0  0  0  0  0  0  0  0  0  0
   -8.5510    4.6480  -17.9070 C   0  0  0  0  0  0  0  0  0  0  0  0
   -8.0640    5.4360  -18.9330 C   0  0  0  0  0  0  0  0  0  0  0  0
   -8.5420    6.7450  -19.0140 C   0  0  0  0  0  0  0  0  0  0  0  0
   -9.4780    7.2150  -18.0800 C   0  0  0  0  0  0  0  0  0  0  0  0
   -9.9190    8.4750  -18.1820 F   0  0  0  0  0  0  0  0  0  0  0  0
   -9.9610    6.4070  -17.0500 C   0  0  0  0  0  0  0  0  0  0  0  0
   -9.4850    5.1100  -16.9720 C   0  0  0  0  0  0  0  0  0  0  0  0
  -12.0890    2.9750  -13.2420 C   0  0  0  0  0  0  0  0  0  0  0  0
  -13.2600    3.9010  -13.1890 C   0  0  0  0  0  0  0  0  0  0  0  0
  -15.0459   -2.4012   -7.2604 H   0  0  0  0  0  0  0  0  0  0  0  0
  -15.8903   -3.8566   -7.8892 H   0  0  0  0  0  0  0  0  0  0  0  0
  -14.0953   -3.7896   -7.8892 H   0  0  0  0  0  0  0  0  0  0  0  0
  -15.5349   -3.2914  -10.0919 H   0  0  0  0  0  0  0  0  0  0  0  0
  -15.5761   -1.6287   -9.3268 H   0  0  0  0  0  0  0  0  0  0  0  0
  -12.5504   -3.9392   -9.4348 H   0  0  0  0  0  0  0  0  0  0  0  0
  -13.6295   -4.0854  -10.9307 H   0  0  0  0  0  0  0  0  0  0  0  0
  -10.8403   -3.0367  -10.6735 H   0  0  0  0  0  0  0  0  0  0  0  0
  -11.5844   -4.1055  -11.9107 H   0  0  0  0  0  0  0  0  0  0  0  0
  -11.9441   -2.3456  -11.9107 H   0  0  0  0  0  0  0  0  0  0  0  0
  -13.3417   -1.5843   -8.0048 H   0  0  0  0  0  0  0  0  0  0  0  0
  -11.9153   -1.5795   -9.1662 H   0  0  0  0  0  0  0  0  0  0  0  0
  -14.2381    0.3150   -9.5263 H   0  0  0  0  0  0  0  0  0  0  0  0
  -12.8564    0.6771   -8.4011 H   0  0  0  0  0  0  0  0  0  0  0  0
  -11.3740    0.6560  -10.2960 H   0  0  0  0  0  0  0  0  0  0  0  0
  -10.0418   -0.1473  -11.3361 H   0  0  0  0  0  0  0  0  0  0  0  0
  -10.6499   -0.9234  -12.8376 H   0  0  0  0  0  0  0  0  0  0  0  0
   -9.0573   -0.0927  -12.8376 H   0  0  0  0  0  0  0  0  0  0  0  0
   -9.2550    1.8320  -14.1840 H   0  0  0  0  0  0  0  0  0  0  0  0
  -11.0940    5.0485  -14.9007 H   0  0  0  0  0  0  0  0  0  0  0  0
   -7.5650    2.7670  -18.1760 H   0  0  0  0  0  0  0  0  0  0  0  0
   -7.3307    5.0479  -19.6552 H   0  0  0  0  0  0  0  0  0  0  0  0
   -8.1836    7.4107  -19.8130 H   0  0  0  0  0  0  0  0  0  0  0  0
  -10.6951    6.7880  -16.3248 H   0  0  0  0  0  0  0  0  0  0  0  0
  -13.5186    4.1055  -12.1396 H   0  0  0  0  0  0  0  0  0  0  0  0
  -13.0048    4.8442  -13.6942 H   0  0  0  0  0  0  0  0  0  0  0  0
  -14.1190    3.4352  -13.6942 H   0  0  0  0  0  0  0  0  0  0  0  0
  1  2  1  0
  2  3  1  0
  3  4  1  0
  4  5  1  0
  3  6  1  0
  6  7  1  0
  7  8  1  0
  8  9  1  0
  9 10  2  0
  9 11  1  0
 11 12  2  0
 12 13  1  0
 12 14  1  0
 14 15  1  0
 15 16  1  0
 16 17  2  0
 17 18  1  0
 18 19  2  0
 18 20  1  0
 20 21  1  0
 21 22  1  0
 22 23  2  0
 23 24  1  0
 24 25  1  0
 24 26  2  0
 26 27  1  0
 15 28  2  0
 28 29  1  0
 28 11  1  0
 27 17  1  0
 27 21  2  0
  1 30  1  0
  1 31  1  0
  1 32  1  0
  2 33  1  0
  2 34  1  0
  4 35  1  0
  4 36  1  0
  5 37  1  0
  5 38  1  0
  5 39  1  0
  6 40  1  0
  6 41  1  0
  7 42  1  0
  7 43  1  0
  8 44  1  0
 13 45  1  0
 13 46  1  0
 13 47  1  0
 14 48  1  0
 16 49  1  0
 20 50  1  0
 22 51  1  0
 23 52  1  0
 26 53  1  0
 29 54  1  0
 29 55  1  0
 29 56  1  0
M  END
>  <meeko>  (10) 
{"is_sidechain": false}

>  <vina_affinity_kcal_mol>  (10) 
-7.671

>  <pose_rank>  (10) 
10

$$$$
